REMARK  Name = ../refined-set-2016/4ksy/4ksy_pocket.pdb
REMARK  278 active torsions:
REMARK  status: ('A' for Active; 'I' for Inactive)
REMARK    1  A    between atoms: _1  and  _3
REMARK    2  A    between atoms: _3  and  _4
REMARK    3  A    between atoms: _6  and  _8
REMARK    4  A    between atoms: _8  and  _9
REMARK    5  A    between atoms: _8  and  _11
REMARK    6  A    between atoms: _11  and  _12
REMARK    7  A    between atoms: _15  and  _17
REMARK    8  A    between atoms: _17  and  _18
REMARK    9  A    between atoms: _21  and  _23
REMARK   10  A    between atoms: _23  and  _24
REMARK   11  A    between atoms: _23  and  _26
REMARK   12  A    between atoms: _26  and  _27
REMARK   13  A    between atoms: _37  and  _39
REMARK   14  A    between atoms: _39  and  _40
REMARK   15  A    between atoms: _39  and  _42
REMARK   16  A    between atoms: _42  and  _43
REMARK   17  A    between atoms: _45  and  _47
REMARK   18  A    between atoms: _47  and  _48
REMARK   19  A    between atoms: _47  and  _50
REMARK   20  A    between atoms: _50  and  _51
REMARK   21  A    between atoms: _56  and  _57
REMARK   22  A    between atoms: _59  and  _61
REMARK   23  A    between atoms: _61  and  _62
REMARK   24  A    between atoms: _61  and  _64
REMARK   25  A    between atoms: _64  and  _65
REMARK   26  A    between atoms: _70  and  _71
REMARK   27  A    between atoms: _73  and  _75
REMARK   28  A    between atoms: _75  and  _76
REMARK   29  A    between atoms: _75  and  _78
REMARK   30  A    between atoms: _78  and  _79
REMARK   31  A    between atoms: _82  and  _84
REMARK   32  A    between atoms: _84  and  _85
REMARK   33  A    between atoms: _87  and  _89
REMARK   34  A    between atoms: _89  and  _90
REMARK   35  A    between atoms: _89  and  _92
REMARK   36  A    between atoms: _92  and  _93
REMARK   37  A    between atoms: _98  and  _99
REMARK   38  A    between atoms: _101  and  _103
REMARK   39  A    between atoms: _103  and  _104
REMARK   40  A    between atoms: _103  and  _106
REMARK   41  A    between atoms: _106  and  _107
REMARK   42  A    between atoms: _110  and  _112
REMARK   43  A    between atoms: _112  and  _113
REMARK   44  A    between atoms: _112  and  _115
REMARK   45  A    between atoms: _115  and  _116
REMARK   46  A    between atoms: _116  and  _117
REMARK   47  A    between atoms: _117  and  _118
REMARK   48  A    between atoms: _127  and  _129
REMARK   49  A    between atoms: _129  and  _130
REMARK   50  A    between atoms: _129  and  _132
REMARK   51  A    between atoms: _132  and  _133
REMARK   52  A    between atoms: _136  and  _138
REMARK   53  A    between atoms: _138  and  _139
REMARK   54  A    between atoms: _138  and  _141
REMARK   55  A    between atoms: _141  and  _142
REMARK   56  A    between atoms: _145  and  _147
REMARK   57  A    between atoms: _147  and  _148
REMARK   58  A    between atoms: _147  and  _150
REMARK   59  A    between atoms: _150  and  _151
REMARK   60  A    between atoms: _154  and  _156
REMARK   61  A    between atoms: _156  and  _157
REMARK   62  A    between atoms: _156  and  _159
REMARK   63  A    between atoms: _159  and  _160
REMARK   64  A    between atoms: _163  and  _165
REMARK   65  A    between atoms: _165  and  _166
REMARK   66  A    between atoms: _165  and  _168
REMARK   67  A    between atoms: _168  and  _169
REMARK   68  A    between atoms: _169  and  _170
REMARK   69  A    between atoms: _175  and  _177
REMARK   70  A    between atoms: _177  and  _178
REMARK   71  A    between atoms: _177  and  _180
REMARK   72  A    between atoms: _180  and  _181
REMARK   73  A    between atoms: _181  and  _182
REMARK   74  A    between atoms: _182  and  _183
REMARK   75  A    between atoms: _192  and  _194
REMARK   76  A    between atoms: _194  and  _195
REMARK   77  A    between atoms: _198  and  _200
REMARK   78  A    between atoms: _200  and  _201
REMARK   79  A    between atoms: _200  and  _203
REMARK   80  A    between atoms: _203  and  _204
REMARK   81  A    between atoms: _207  and  _209
REMARK   82  A    between atoms: _209  and  _210
REMARK   83  A    between atoms: _209  and  _212
REMARK   84  A    between atoms: _212  and  _213
REMARK   85  A    between atoms: _216  and  _218
REMARK   86  A    between atoms: _218  and  _219
REMARK   87  A    between atoms: _218  and  _221
REMARK   88  A    between atoms: _221  and  _222
REMARK   89  A    between atoms: _222  and  _223
REMARK   90  A    between atoms: _223  and  _224
REMARK   91  A    between atoms: _233  and  _235
REMARK   92  A    between atoms: _235  and  _236
REMARK   93  A    between atoms: _235  and  _238
REMARK   94  A    between atoms: _241  and  _243
REMARK   95  A    between atoms: _243  and  _244
REMARK   96  A    between atoms: _243  and  _246
REMARK   97  A    between atoms: _246  and  _247
REMARK   98  A    between atoms: _252  and  _253
REMARK   99  A    between atoms: _255  and  _257
REMARK  100  A    between atoms: _257  and  _258
REMARK  101  A    between atoms: _257  and  _260
REMARK  102  A    between atoms: _260  and  _261
REMARK  103  A    between atoms: _263  and  _265
REMARK  104  A    between atoms: _265  and  _266
REMARK  105  A    between atoms: _265  and  _268
REMARK  106  A    between atoms: _268  and  _269
REMARK  107  A    between atoms: _274  and  _276
REMARK  108  A    between atoms: _276  and  _277
REMARK  109  A    between atoms: _276  and  _279
REMARK  110  A    between atoms: _279  and  _280
REMARK  111  A    between atoms: _280  and  _281
REMARK  112  A    between atoms: _284  and  _286
REMARK  113  A    between atoms: _286  and  _287
REMARK  114  A    between atoms: _286  and  _289
REMARK  115  A    between atoms: _289  and  _290
REMARK  116  A    between atoms: _295  and  _296
REMARK  117  A    between atoms: _298  and  _300
REMARK  118  A    between atoms: _300  and  _301
REMARK  119  A    between atoms: _304  and  _306
REMARK  120  A    between atoms: _306  and  _307
REMARK  121  A    between atoms: _306  and  _309
REMARK  122  A    between atoms: _309  and  _310
REMARK  123  A    between atoms: _314  and  _315
REMARK  124  A    between atoms: _320  and  _322
REMARK  125  A    between atoms: _322  and  _323
REMARK  126  A    between atoms: _322  and  _325
REMARK  127  A    between atoms: _325  and  _326
REMARK  128  A    between atoms: _329  and  _331
REMARK  129  A    between atoms: _331  and  _332
REMARK  130  A    between atoms: _331  and  _334
REMARK  131  A    between atoms: _334  and  _335
REMARK  132  A    between atoms: _335  and  _336
REMARK  133  A    between atoms: _341  and  _343
REMARK  134  A    between atoms: _343  and  _344
REMARK  135  A    between atoms: _343  and  _346
REMARK  136  A    between atoms: _346  and  _347
REMARK  137  A    between atoms: _350  and  _352
REMARK  138  A    between atoms: _352  and  _353
REMARK  139  A    between atoms: _352  and  _355
REMARK  140  A    between atoms: _355  and  _356
REMARK  141  A    between atoms: _362  and  _364
REMARK  142  A    between atoms: _364  and  _365
REMARK  143  A    between atoms: _364  and  _367
REMARK  144  A    between atoms: _367  and  _368
REMARK  145  A    between atoms: _371  and  _373
REMARK  146  A    between atoms: _373  and  _374
REMARK  147  A    between atoms: _377  and  _379
REMARK  148  A    between atoms: _379  and  _380
REMARK  149  A    between atoms: _379  and  _382
REMARK  150  A    between atoms: _382  and  _383
REMARK  151  A    between atoms: _393  and  _395
REMARK  152  A    between atoms: _395  and  _396
REMARK  153  A    between atoms: _395  and  _398
REMARK  154  A    between atoms: _398  and  _399
REMARK  155  A    between atoms: _401  and  _403
REMARK  156  A    between atoms: _403  and  _404
REMARK  157  A    between atoms: _403  and  _406
REMARK  158  A    between atoms: _406  and  _407
REMARK  159  A    between atoms: _412  and  _413
REMARK  160  A    between atoms: _415  and  _417
REMARK  161  A    between atoms: _417  and  _418
REMARK  162  A    between atoms: _417  and  _420
REMARK  163  A    between atoms: _420  and  _421
REMARK  164  A    between atoms: _426  and  _427
REMARK  165  A    between atoms: _429  and  _431
REMARK  166  A    between atoms: _431  and  _432
REMARK  167  A    between atoms: _431  and  _434
REMARK  168  A    between atoms: _434  and  _435
REMARK  169  A    between atoms: _438  and  _440
REMARK  170  A    between atoms: _440  and  _441
REMARK  171  A    between atoms: _443  and  _445
REMARK  172  A    between atoms: _445  and  _446
REMARK  173  A    between atoms: _445  and  _448
REMARK  174  A    between atoms: _448  and  _449
REMARK  175  A    between atoms: _454  and  _455
REMARK  176  A    between atoms: _457  and  _459
REMARK  177  A    between atoms: _459  and  _460
REMARK  178  A    between atoms: _459  and  _462
REMARK  179  A    between atoms: _462  and  _463
REMARK  180  A    between atoms: _466  and  _468
REMARK  181  A    between atoms: _468  and  _469
REMARK  182  A    between atoms: _468  and  _471
REMARK  183  A    between atoms: _471  and  _472
REMARK  184  A    between atoms: _472  and  _473
REMARK  185  A    between atoms: _473  and  _474
REMARK  186  A    between atoms: _483  and  _485
REMARK  187  A    between atoms: _485  and  _486
REMARK  188  A    between atoms: _485  and  _488
REMARK  189  A    between atoms: _488  and  _489
REMARK  190  A    between atoms: _492  and  _494
REMARK  191  A    between atoms: _494  and  _495
REMARK  192  A    between atoms: _494  and  _497
REMARK  193  A    between atoms: _497  and  _498
REMARK  194  A    between atoms: _501  and  _503
REMARK  195  A    between atoms: _503  and  _504
REMARK  196  A    between atoms: _503  and  _506
REMARK  197  A    between atoms: _506  and  _507
REMARK  198  A    between atoms: _507  and  _508
REMARK  199  A    between atoms: _508  and  _509
REMARK  200  A    between atoms: _518  and  _520
REMARK  201  A    between atoms: _520  and  _521
REMARK  202  A    between atoms: _520  and  _523
REMARK  203  A    between atoms: _523  and  _524
REMARK  204  A    between atoms: _524  and  _525
REMARK  205  A    between atoms: _530  and  _532
REMARK  206  A    between atoms: _532  and  _533
REMARK  207  A    between atoms: _532  and  _535
REMARK  208  A    between atoms: _535  and  _536
REMARK  209  A    between atoms: _536  and  _537
REMARK  210  A    between atoms: _537  and  _538
REMARK  211  A    between atoms: _547  and  _549
REMARK  212  A    between atoms: _549  and  _550
REMARK  213  A    between atoms: _553  and  _555
REMARK  214  A    between atoms: _555  and  _556
REMARK  215  A    between atoms: _558  and  _560
REMARK  216  A    between atoms: _560  and  _561
REMARK  217  A    between atoms: _560  and  _563
REMARK  218  A    between atoms: _563  and  _564
REMARK  219  A    between atoms: _567  and  _569
REMARK  220  A    between atoms: _569  and  _570
REMARK  221  A    between atoms: _569  and  _572
REMARK  222  A    between atoms: _572  and  _573
REMARK  223  A    between atoms: _573  and  _574
REMARK  224  A    between atoms: _574  and  _575
REMARK  225  A    between atoms: _584  and  _586
REMARK  226  A    between atoms: _586  and  _587
REMARK  227  A    between atoms: _586  and  _589
REMARK  228  A    between atoms: _592  and  _594
REMARK  229  A    between atoms: _594  and  _595
REMARK  230  A    between atoms: _594  and  _597
REMARK  231  A    between atoms: _597  and  _598
REMARK  232  A    between atoms: _603  and  _604
REMARK  233  A    between atoms: _606  and  _608
REMARK  234  A    between atoms: _608  and  _609
REMARK  235  A    between atoms: _608  and  _611
REMARK  236  A    between atoms: _611  and  _612
REMARK  237  A    between atoms: _614  and  _616
REMARK  238  A    between atoms: _616  and  _617
REMARK  239  A    between atoms: _616  and  _619
REMARK  240  A    between atoms: _619  and  _620
REMARK  241  A    between atoms: _625  and  _627
REMARK  242  A    between atoms: _627  and  _628
REMARK  243  A    between atoms: _627  and  _630
REMARK  244  A    between atoms: _630  and  _631
REMARK  245  A    between atoms: _631  and  _632
REMARK  246  A    between atoms: _635  and  _637
REMARK  247  A    between atoms: _637  and  _638
REMARK  248  A    between atoms: _637  and  _640
REMARK  249  A    between atoms: _640  and  _641
REMARK  250  A    between atoms: _646  and  _647
REMARK  251  A    between atoms: _649  and  _651
REMARK  252  A    between atoms: _651  and  _652
REMARK  253  A    between atoms: _655  and  _657
REMARK  254  A    between atoms: _657  and  _658
REMARK  255  A    between atoms: _657  and  _660
REMARK  256  A    between atoms: _660  and  _661
REMARK  257  A    between atoms: _665  and  _666
REMARK  258  A    between atoms: _671  and  _673
REMARK  259  A    between atoms: _673  and  _674
REMARK  260  A    between atoms: _673  and  _676
REMARK  261  A    between atoms: _676  and  _677
REMARK  262  A    between atoms: _680  and  _682
REMARK  263  A    between atoms: _682  and  _683
REMARK  264  A    between atoms: _682  and  _685
REMARK  265  A    between atoms: _685  and  _686
REMARK  266  A    between atoms: _686  and  _687
REMARK  267  A    between atoms: _692  and  _694
REMARK  268  A    between atoms: _694  and  _695
REMARK  269  A    between atoms: _694  and  _697
REMARK  270  A    between atoms: _697  and  _698
REMARK  271  A    between atoms: _701  and  _703
REMARK  272  A    between atoms: _703  and  _704
REMARK  273  A    between atoms: _703  and  _706
REMARK  274  A    between atoms: _706  and  _707
REMARK  275  A    between atoms: _710  and  _712
REMARK  276  A    between atoms: _712  and  _713
REMARK  277  A    between atoms: _712  and  _715
REMARK  278  A    between atoms: _715  and  _716
REMARK                            x       y       z     vdW  Elec       q    Type
REMARK                         _______ _______ _______ _____ _____    ______ ____
ROOT
ATOM      1  C   TYR A   7      42.151   1.066  -9.812  0.00  0.00    +0.241 C 
ATOM      2  O   TYR A   7      42.028   2.179  -9.279  0.00  0.00    -0.273 OA
ATOM      3  N   ILE A   8      43.293   0.383  -9.794  0.00  0.00    -0.297 N 
ATOM      4  H   ILE A   8      43.369  -0.487 -10.359  0.00  0.00    +0.150 HD
ENDROOT
BRANCH   3   5
ATOM      5  CA  ILE A   8      44.453   0.820  -8.999  0.00  0.00    +0.149 C 
BRANCH   5   6
ATOM      6  C   ILE A   8      45.045   2.148  -9.474  0.00  0.00    +0.241 C 
ATOM      7  O   ILE A   8      45.389   3.041  -8.671  0.00  0.00    -0.273 OA
ATOM      8  N   GLY A   9      45.119   2.295 -10.783  0.00  0.00    -0.295 N 
ATOM      9  H   GLY A   9      44.658   1.594 -11.398  0.00  0.00    +0.150 HD
BRANCH   8  10
ATOM     10  CA  GLY A   9      45.827   3.410 -11.389  0.00  0.00    +0.176 C 
BRANCH  10  11
ATOM     11  C   GLY A   9      44.905   4.519 -11.853  0.00  0.00    +0.243 C 
ATOM     12  N   TYR A  10      43.617   4.373 -11.585  0.00  0.00    -0.297 N 
ATOM     13  H   TYR A  10      43.283   3.551 -11.042  0.00  0.00    +0.150 HD
ATOM     14  O   GLY A   9      45.345   5.502 -12.452  0.00  0.00    -0.273 OA
BRANCH  12  15
ATOM     15  CA  TYR A  10      42.667   5.383 -12.062  0.00  0.00    +0.153 C 
BRANCH  15  16
ATOM     16  C   TYR A  10      41.458   5.542 -11.170  0.00  0.00    +0.241 C 
ATOM     17  O   TYR A  10      41.343   6.562 -10.489  0.00  0.00    -0.273 OA
ATOM     18  N   LEU A  11      40.568   4.548 -11.136  0.00  0.00    -0.297 N 
ATOM     19  H   LEU A  11      40.754   3.653 -11.631  0.00  0.00    +0.150 HD
BRANCH  18  20
ATOM     20  CA  LEU A  11      39.320   4.743 -10.386  0.00  0.00    +0.149 C 
BRANCH  20  21
ATOM     21  C   LEU A  11      39.555   4.989  -8.901  0.00  0.00    +0.241 C 
ATOM     22  O   LEU A  11      38.865   5.799  -8.287  0.00  0.00    -0.273 OA
ATOM     23  N   ARG A  12      40.513   4.289  -8.300  0.00  0.00    -0.297 N 
ATOM     24  H   ARG A  12      41.112   3.626  -8.832  0.00  0.00    +0.150 HD
BRANCH  23  25
ATOM     25  CA  ARG A  12      40.691   4.488  -6.859  0.00  0.00    +0.149 C 
BRANCH  25  26
ATOM     26  C   ARG A  12      41.280   5.857  -6.557  0.00  0.00    +0.241 C 
ATOM     27  O   ARG A  12      41.144   6.356  -5.442  0.00  0.00    -0.273 OA
ATOM     28  N   LEU A  13      41.919   6.459  -7.561  0.00  0.00    -0.297 N 
ATOM     29  H   LEU A  13      41.979   5.969  -8.476  0.00  0.00    +0.150 HD
BRANCH  28  30
ATOM     30  CA  LEU A  13      42.534   7.765  -7.435  0.00  0.00    +0.149 C 
BRANCH  30  31
ATOM     31  C   LEU A  13      41.553   8.906  -7.700  0.00  0.00    +0.241 C 
ATOM     32  O   LEU A  13      41.632   9.956  -7.069  0.00  0.00    -0.273 OA
ATOM     33  N   ILE A  14      40.643   8.724  -8.644  0.00  0.00    -0.298 N 
ATOM     34  H   ILE A  14      40.569   7.810  -9.135  0.00  0.00    +0.150 HD
BRANCH  33  35
ATOM     35  CA  ILE A  14      39.745   9.824  -8.986  0.00  0.00    +0.137 C 
BRANCH  35  36
ATOM     36  C   ILE A  14      38.359   9.755  -8.343  0.00  0.00    +0.227 C 
ATOM     37  O   ILE A  14      37.740  10.796  -8.096  0.00  0.00    -0.286 OA
ENDBRANCH  35  36
BRANCH  35  38
ATOM     38  CB  ILE A  14      39.598  10.018 -10.511  0.00  0.00    +0.026 C 
ATOM     39  CG2 ILE A  14      40.969  10.198 -11.174  0.00  0.00    +0.002 C 
BRANCH  38  40
ATOM     40  CG1 ILE A  14      38.857   8.842 -11.134  0.00  0.00    +0.002 C 
ATOM     41  CD1 ILE A  14      38.080   9.229 -12.364  0.00  0.00    +0.000 C 
ENDBRANCH  38  40
ENDBRANCH  35  38
ENDBRANCH  33  35
ENDBRANCH  30  31
BRANCH  30  42
ATOM     42  CB  LEU A  13      43.720   7.892  -8.390  0.00  0.00    +0.029 C 
BRANCH  42  43
ATOM     43  CG  LEU A  13      44.796   6.819  -8.248  0.00  0.00    +0.002 C 
ATOM     44  CD2 LEU A  13      45.385   6.818  -6.843  0.00  0.00    +0.000 C 
ATOM     45  CD1 LEU A  13      45.875   7.015  -9.307  0.00  0.00    +0.000 C 
ENDBRANCH  42  43
ENDBRANCH  30  42
ENDBRANCH  28  30
ENDBRANCH  25  26
BRANCH  25  46
ATOM     46  CB  ARG A  12      41.497   3.366  -6.200  0.00  0.00    +0.033 C 
BRANCH  46  47
ATOM     47  CG  ARG A  12      42.980   3.465  -6.356  0.00  0.00    +0.045 C 
BRANCH  47  48
ATOM     48  CD  ARG A  12      43.684   2.356  -5.545  0.00  0.00    +0.174 C 
BRANCH  48  49
ATOM     49  NE  ARG A  12      45.134   2.464  -5.679  0.00  0.00    -0.265 N 
ATOM     50  CZ  ARG A  12      46.009   1.831  -4.902  0.00  0.00    +0.342 C 
ATOM     51  NH2 ARG A  12      45.587   1.043  -3.923  0.00  0.00    -0.292 N 
ATOM     52 HH21 ARG A  12      46.275   0.551  -3.319  0.00  0.00    +0.255 HD
ATOM     53 HH22 ARG A  12      44.568   0.917  -3.759  0.00  0.00    +0.255 HD
ATOM     54  NH1 ARG A  12      47.307   1.992  -5.103  0.00  0.00    -0.292 N 
ATOM     55 HH11 ARG A  12      47.992   1.498  -4.497  0.00  0.00    +0.255 HD
ATOM     56 HH12 ARG A  12      47.642   2.613  -5.867  0.00  0.00    +0.255 HD
ATOM     57  HE  ARG A  12      45.508   3.076  -6.432  0.00  0.00    +0.259 HD
ENDBRANCH  48  49
ENDBRANCH  47  48
ENDBRANCH  46  47
ENDBRANCH  25  46
ENDBRANCH  23  25
ENDBRANCH  20  21
BRANCH  20  58
ATOM     58  CB  LEU A  11      38.335   3.578 -10.580  0.00  0.00    +0.029 C 
BRANCH  58  59
ATOM     59  CG  LEU A  11      37.818   3.408 -12.022  0.00  0.00    +0.002 C 
ATOM     60  CD2 LEU A  11      36.790   2.259 -12.129  0.00  0.00    +0.000 C 
ATOM     61  CD1 LEU A  11      37.218   4.715 -12.539  0.00  0.00    +0.000 C 
ENDBRANCH  58  59
ENDBRANCH  20  58
ENDBRANCH  18  20
ENDBRANCH  15  16
BRANCH  15  62
ATOM     62  CB  TYR A  10      42.244   5.096 -13.505  0.00  0.00    +0.055 C 
BRANCH  62  63
ATOM     63  CG  TYR A  10      41.356   6.160 -14.130  0.00  0.00    -0.020 A 
ATOM     64  CD2 TYR A  10      41.796   7.473 -14.273  0.00  0.00    -0.001 A 
ATOM     65  CE2 TYR A  10      40.972   8.458 -14.856  0.00  0.00    +0.036 A 
ATOM     66  CZ  TYR A  10      39.714   8.110 -15.309  0.00  0.00    +0.134 A 
ATOM     67  CE1 TYR A  10      39.256   6.804 -15.183  0.00  0.00    +0.036 A 
ATOM     68  CD1 TYR A  10      40.082   5.840 -14.588  0.00  0.00    -0.001 A 
BRANCH  66  69
ATOM     69  OH  TYR A  10      38.899   9.068 -15.888  0.00  0.00    -0.506 OA
ATOM     70  HH  TYR A  10      38.679   8.797 -16.814  0.00  0.00    +0.292 HD
ENDBRANCH  66  69
ENDBRANCH  62  63
ENDBRANCH  15  62
ENDBRANCH  12  15
ENDBRANCH  10  11
ENDBRANCH   8  10
ENDBRANCH   5   6
BRANCH   5  71
ATOM     71  CB  ILE A   8      45.568  -0.268  -9.033  0.00  0.00    +0.027 C 
ATOM     72  CG2 ILE A   8      46.944   0.312  -8.571  0.00  0.00    +0.002 C 
BRANCH  71  73
ATOM     73  CG1 ILE A   8      45.173  -1.472  -8.165  0.00  0.00    +0.002 C 
ATOM     74  CD1 ILE A   8      45.887  -2.792  -8.603  0.00  0.00    +0.000 C 
ENDBRANCH  71  73
ENDBRANCH   5  71
ENDBRANCH   3   5
BRANCH   1  75
ATOM     75  CA  TYR A   7      40.985   0.397 -10.547  0.00  0.00    +0.153 C 
BRANCH  75  77
ATOM     76  C   TYR A   6      41.539   0.926 -12.824  0.00  0.00    +0.241 C 
ATOM     77  N   TYR A   7      41.387   0.001 -11.886  0.00  0.00    -0.297 N 
ATOM     78  H   TYR A   7      41.554  -1.001 -12.107  0.00  0.00    +0.150 HD
ATOM     79  O   TYR A   6      41.294   2.104 -12.617  0.00  0.00    -0.273 OA
BRANCH  76  80
ATOM     80  CA  TYR A   6      42.043   0.463 -14.189  0.00  0.00    +0.153 C 
BRANCH  80  83
ATOM     81  C   SER A   5      44.198  -0.442 -13.466  0.00  0.00    +0.243 C 
ATOM     82  O   SER A   5      44.515   0.639 -12.982  0.00  0.00    -0.273 OA
ATOM     83  N   TYR A   6      43.024  -0.631 -14.059  0.00  0.00    -0.297 N 
ATOM     84  H   TYR A   6      42.792  -1.571 -14.440  0.00  0.00    +0.150 HD
BRANCH  81  85
ATOM     85  CA  SER A   5      45.119  -1.666 -13.330  0.00  0.00    +0.178 C 
BRANCH  85  88
ATOM     86  C   TRP A   4      43.676  -2.954 -11.849  0.00  0.00    +0.241 C 
ATOM     87  O   TRP A   4      43.656  -2.054 -11.014  0.00  0.00    -0.273 OA
ATOM     88  N   SER A   5      44.363  -2.869 -12.981  0.00  0.00    -0.295 N 
ATOM     89  H   SER A   5      44.364  -3.677 -13.636  0.00  0.00    +0.150 HD
BRANCH  86  90
ATOM     90  CA  TRP A   4      42.897  -4.252 -11.617  0.00  0.00    +0.153 C 
BRANCH  90  92
ATOM     91  C   ALA A   3      41.269  -3.899 -13.370  0.00  0.00    +0.241 C 
ATOM     92  N   TRP A   4      42.195  -4.680 -12.820  0.00  0.00    -0.297 N 
ATOM     93  H   TRP A   4      42.419  -5.600 -13.250  0.00  0.00    +0.150 HD
ATOM     94  O   ALA A   3      40.886  -2.857 -12.841  0.00  0.00    -0.273 OA
BRANCH  91  95
ATOM     95  CA  ALA A   3      40.657  -4.391 -14.682  0.00  0.00    +0.149 C 
ATOM     96  CB  ALA A   3      39.568  -5.457 -14.377  0.00  0.00    +0.031 C 
BRANCH  95  98
ATOM     97  C   LEU A   2      42.597  -4.097 -16.113  0.00  0.00    +0.241 C 
ATOM     98  N   ALA A   3      41.695  -4.924 -15.585  0.00  0.00    -0.297 N 
ATOM     99  H   ALA A   3      41.723  -5.939 -15.808  0.00  0.00    +0.150 HD
ATOM    100  O   LEU A   2      42.572  -2.886 -15.912  0.00  0.00    -0.273 OA
BRANCH  97 101
ATOM    101  CA  LEU A   2      43.687  -4.703 -17.001  0.00  0.00    +0.149 C 
BRANCH 101 104
ATOM    102  C   GLY A   1      44.746  -6.121 -15.371  0.00  0.00    +0.240 C 
ATOM    103  O   GLY A   1      44.984  -5.133 -14.667  0.00  0.00    -0.274 OA
ATOM    104  N   LEU A   2      44.108  -6.019 -16.528  0.00  0.00    -0.297 N 
ATOM    105  H   LEU A   2      43.909  -6.868 -17.094  0.00  0.00    +0.150 HD
BRANCH 102 106
ATOM    106  CA  GLY A   1      45.193  -7.506 -14.968  0.00  0.00    +0.169 C 
BRANCH 106 107
ATOM    107  N   GLY A   1      44.176  -8.518 -15.222  0.00  0.00    -0.236 NA
ATOM    108  H   GLY A   1      44.378  -9.276 -15.905  0.00  0.00    +0.142 HD
ENDBRANCH 106 107
ENDBRANCH 102 106
ENDBRANCH 101 104
BRANCH 101 109
ATOM    109  CB  LEU A   2      43.187  -4.774 -18.439  0.00  0.00    +0.029 C 
BRANCH 109 110
ATOM    110  CG  LEU A   2      44.238  -5.177 -19.481  0.00  0.00    +0.002 C 
ATOM    111  CD2 LEU A   2      45.438  -4.216 -19.455  0.00  0.00    +0.000 C 
ATOM    112  CD1 LEU A   2      43.583  -5.208 -20.841  0.00  0.00    +0.000 C 
ENDBRANCH 109 110
ENDBRANCH 101 109
ENDBRANCH  97 101
ENDBRANCH  95  98
ENDBRANCH  91  95
ENDBRANCH  90  92
BRANCH  90 113
ATOM    113  CB  TRP A   4      43.778  -5.388 -11.055  0.00  0.00    +0.057 C 
BRANCH 113 114
ATOM    114  CG  TRP A   4      42.924  -6.286 -10.168  0.00  0.00    -0.002 A 
ATOM    115  CD2 TRP A   4      42.513  -6.002  -8.830  0.00  0.00    +0.013 A 
ATOM    116  CE3 TRP A   4      42.766  -4.950  -7.943  0.00  0.00    +0.001 A 
ATOM    117  CZ3 TRP A   4      42.214  -5.011  -6.666  0.00  0.00    +0.000 A 
ATOM    118  CH2 TRP A   4      41.402  -6.076  -6.281  0.00  0.00    +0.001 A 
ATOM    119  CZ2 TRP A   4      41.140  -7.123  -7.128  0.00  0.00    +0.017 A 
ATOM    120  CE2 TRP A   4      41.696  -7.073  -8.404  0.00  0.00    +0.056 A 
ATOM    121  NE1 TRP A   4      41.605  -7.963  -9.440  0.00  0.00    -0.352 N 
ATOM    122  HE1 TRP A   4      41.079  -8.860  -9.425  0.00  0.00    +0.166 HD
ATOM    123  CD1 TRP A   4      42.330  -7.470 -10.509  0.00  0.00    +0.068 A 
ENDBRANCH 113 114
ENDBRANCH  90 113
ENDBRANCH  86  90
ENDBRANCH  85  88
BRANCH  85 124
ATOM    124  CB  SER A   5      45.947  -1.938 -14.598  0.00  0.00    +0.166 C 
BRANCH 124 125
ATOM    125  OG  SER A   5      46.061  -0.808 -15.429  0.00  0.00    -0.380 OA
ATOM    126  H   SER A   5      46.503  -0.076 -14.930  0.00  0.00    +0.211 HD
ENDBRANCH 124 125
ENDBRANCH  85 124
ENDBRANCH  81  85
ENDBRANCH  80  83
BRANCH  80 127
ATOM    127  CB  TYR A   6      40.881   0.001 -15.043  0.00  0.00    +0.055 C 
BRANCH 127 128
ATOM    128  CG  TYR A   6      39.928   1.057 -15.545  0.00  0.00    -0.020 A 
ATOM    129  CD2 TYR A   6      38.560   0.905 -15.359  0.00  0.00    -0.001 A 
ATOM    130  CE2 TYR A   6      37.657   1.840 -15.844  0.00  0.00    +0.036 A 
ATOM    131  CZ  TYR A   6      38.110   2.944 -16.535  0.00  0.00    +0.134 A 
ATOM    132  CE1 TYR A   6      39.467   3.128 -16.744  0.00  0.00    +0.036 A 
ATOM    133  CD1 TYR A   6      40.377   2.182 -16.261  0.00  0.00    -0.001 A 
BRANCH 131 134
ATOM    134  OH  TYR A   6      37.176   3.858 -17.008  0.00  0.00    -0.506 OA
ATOM    135  HH  TYR A   6      37.644   4.592 -17.480  0.00  0.00    +0.292 HD
ENDBRANCH 131 134
ENDBRANCH 127 128
ENDBRANCH  80 127
ENDBRANCH  76  80
ENDBRANCH  75  77
BRANCH  75 136
ATOM    136  CB  TYR A   7      40.485  -0.825  -9.769  0.00  0.00    +0.055 C 
BRANCH 136 137
ATOM    137  CG  TYR A   7      40.298  -0.547  -8.285  0.00  0.00    -0.020 A 
ATOM    138  CD2 TYR A   7      41.101  -1.172  -7.337  0.00  0.00    -0.001 A 
ATOM    139  CE2 TYR A   7      40.941  -0.917  -5.975  0.00  0.00    +0.036 A 
ATOM    140  CZ  TYR A   7      39.960  -0.035  -5.558  0.00  0.00    +0.134 A 
ATOM    141  CE1 TYR A   7      39.146   0.595  -6.478  0.00  0.00    +0.036 A 
ATOM    142  CD1 TYR A   7      39.311   0.331  -7.839  0.00  0.00    -0.001 A 
BRANCH 140 143
ATOM    143  OH  TYR A   7      39.801   0.216  -4.212  0.00  0.00    -0.506 OA
ATOM    144  HH  TYR A   7      39.063   0.864  -4.083  0.00  0.00    +0.292 HD
ENDBRANCH 140 143
ENDBRANCH 136 137
ENDBRANCH  75 136
ENDBRANCH   1  75
TORSDOF 55
REMARK  Name = ../refined-set-2016/4ksy/4ksy_pocket.pdb
REMARK  278 active torsions:
REMARK  status: ('A' for Active; 'I' for Inactive)
REMARK    1  A    between atoms: _1  and  _3
REMARK    2  A    between atoms: _3  and  _4
REMARK    3  A    between atoms: _6  and  _8
REMARK    4  A    between atoms: _8  and  _9
REMARK    5  A    between atoms: _8  and  _11
REMARK    6  A    between atoms: _11  and  _12
REMARK    7  A    between atoms: _15  and  _17
REMARK    8  A    between atoms: _17  and  _18
REMARK    9  A    between atoms: _21  and  _23
REMARK   10  A    between atoms: _23  and  _24
REMARK   11  A    between atoms: _23  and  _26
REMARK   12  A    between atoms: _26  and  _27
REMARK   13  A    between atoms: _37  and  _39
REMARK   14  A    between atoms: _39  and  _40
REMARK   15  A    between atoms: _39  and  _42
REMARK   16  A    between atoms: _42  and  _43
REMARK   17  A    between atoms: _45  and  _47
REMARK   18  A    between atoms: _47  and  _48
REMARK   19  A    between atoms: _47  and  _50
REMARK   20  A    between atoms: _50  and  _51
REMARK   21  A    between atoms: _56  and  _57
REMARK   22  A    between atoms: _59  and  _61
REMARK   23  A    between atoms: _61  and  _62
REMARK   24  A    between atoms: _61  and  _64
REMARK   25  A    between atoms: _64  and  _65
REMARK   26  A    between atoms: _70  and  _71
REMARK   27  A    between atoms: _73  and  _75
REMARK   28  A    between atoms: _75  and  _76
REMARK   29  A    between atoms: _75  and  _78
REMARK   30  A    between atoms: _78  and  _79
REMARK   31  A    between atoms: _82  and  _84
REMARK   32  A    between atoms: _84  and  _85
REMARK   33  A    between atoms: _87  and  _89
REMARK   34  A    between atoms: _89  and  _90
REMARK   35  A    between atoms: _89  and  _92
REMARK   36  A    between atoms: _92  and  _93
REMARK   37  A    between atoms: _98  and  _99
REMARK   38  A    between atoms: _101  and  _103
REMARK   39  A    between atoms: _103  and  _104
REMARK   40  A    between atoms: _103  and  _106
REMARK   41  A    between atoms: _106  and  _107
REMARK   42  A    between atoms: _110  and  _112
REMARK   43  A    between atoms: _112  and  _113
REMARK   44  A    between atoms: _112  and  _115
REMARK   45  A    between atoms: _115  and  _116
REMARK   46  A    between atoms: _116  and  _117
REMARK   47  A    between atoms: _117  and  _118
REMARK   48  A    between atoms: _127  and  _129
REMARK   49  A    between atoms: _129  and  _130
REMARK   50  A    between atoms: _129  and  _132
REMARK   51  A    between atoms: _132  and  _133
REMARK   52  A    between atoms: _136  and  _138
REMARK   53  A    between atoms: _138  and  _139
REMARK   54  A    between atoms: _138  and  _141
REMARK   55  A    between atoms: _141  and  _142
REMARK   56  A    between atoms: _145  and  _147
REMARK   57  A    between atoms: _147  and  _148
REMARK   58  A    between atoms: _147  and  _150
REMARK   59  A    between atoms: _150  and  _151
REMARK   60  A    between atoms: _154  and  _156
REMARK   61  A    between atoms: _156  and  _157
REMARK   62  A    between atoms: _156  and  _159
REMARK   63  A    between atoms: _159  and  _160
REMARK   64  A    between atoms: _163  and  _165
REMARK   65  A    between atoms: _165  and  _166
REMARK   66  A    between atoms: _165  and  _168
REMARK   67  A    between atoms: _168  and  _169
REMARK   68  A    between atoms: _169  and  _170
REMARK   69  A    between atoms: _175  and  _177
REMARK   70  A    between atoms: _177  and  _178
REMARK   71  A    between atoms: _177  and  _180
REMARK   72  A    between atoms: _180  and  _181
REMARK   73  A    between atoms: _181  and  _182
REMARK   74  A    between atoms: _182  and  _183
REMARK   75  A    between atoms: _192  and  _194
REMARK   76  A    between atoms: _194  and  _195
REMARK   77  A    between atoms: _198  and  _200
REMARK   78  A    between atoms: _200  and  _201
REMARK   79  A    between atoms: _200  and  _203
REMARK   80  A    between atoms: _203  and  _204
REMARK   81  A    between atoms: _207  and  _209
REMARK   82  A    between atoms: _209  and  _210
REMARK   83  A    between atoms: _209  and  _212
REMARK   84  A    between atoms: _212  and  _213
REMARK   85  A    between atoms: _216  and  _218
REMARK   86  A    between atoms: _218  and  _219
REMARK   87  A    between atoms: _218  and  _221
REMARK   88  A    between atoms: _221  and  _222
REMARK   89  A    between atoms: _222  and  _223
REMARK   90  A    between atoms: _223  and  _224
REMARK   91  A    between atoms: _233  and  _235
REMARK   92  A    between atoms: _235  and  _236
REMARK   93  A    between atoms: _235  and  _238
REMARK   94  A    between atoms: _241  and  _243
REMARK   95  A    between atoms: _243  and  _244
REMARK   96  A    between atoms: _243  and  _246
REMARK   97  A    between atoms: _246  and  _247
REMARK   98  A    between atoms: _252  and  _253
REMARK   99  A    between atoms: _255  and  _257
REMARK  100  A    between atoms: _257  and  _258
REMARK  101  A    between atoms: _257  and  _260
REMARK  102  A    between atoms: _260  and  _261
REMARK  103  A    between atoms: _263  and  _265
REMARK  104  A    between atoms: _265  and  _266
REMARK  105  A    between atoms: _265  and  _268
REMARK  106  A    between atoms: _268  and  _269
REMARK  107  A    between atoms: _274  and  _276
REMARK  108  A    between atoms: _276  and  _277
REMARK  109  A    between atoms: _276  and  _279
REMARK  110  A    between atoms: _279  and  _280
REMARK  111  A    between atoms: _280  and  _281
REMARK  112  A    between atoms: _284  and  _286
REMARK  113  A    between atoms: _286  and  _287
REMARK  114  A    between atoms: _286  and  _289
REMARK  115  A    between atoms: _289  and  _290
REMARK  116  A    between atoms: _295  and  _296
REMARK  117  A    between atoms: _298  and  _300
REMARK  118  A    between atoms: _300  and  _301
REMARK  119  A    between atoms: _304  and  _306
REMARK  120  A    between atoms: _306  and  _307
REMARK  121  A    between atoms: _306  and  _309
REMARK  122  A    between atoms: _309  and  _310
REMARK  123  A    between atoms: _314  and  _315
REMARK  124  A    between atoms: _320  and  _322
REMARK  125  A    between atoms: _322  and  _323
REMARK  126  A    between atoms: _322  and  _325
REMARK  127  A    between atoms: _325  and  _326
REMARK  128  A    between atoms: _329  and  _331
REMARK  129  A    between atoms: _331  and  _332
REMARK  130  A    between atoms: _331  and  _334
REMARK  131  A    between atoms: _334  and  _335
REMARK  132  A    between atoms: _335  and  _336
REMARK  133  A    between atoms: _341  and  _343
REMARK  134  A    between atoms: _343  and  _344
REMARK  135  A    between atoms: _343  and  _346
REMARK  136  A    between atoms: _346  and  _347
REMARK  137  A    between atoms: _350  and  _352
REMARK  138  A    between atoms: _352  and  _353
REMARK  139  A    between atoms: _352  and  _355
REMARK  140  A    between atoms: _355  and  _356
REMARK  141  A    between atoms: _362  and  _364
REMARK  142  A    between atoms: _364  and  _365
REMARK  143  A    between atoms: _364  and  _367
REMARK  144  A    between atoms: _367  and  _368
REMARK  145  A    between atoms: _371  and  _373
REMARK  146  A    between atoms: _373  and  _374
REMARK  147  A    between atoms: _377  and  _379
REMARK  148  A    between atoms: _379  and  _380
REMARK  149  A    between atoms: _379  and  _382
REMARK  150  A    between atoms: _382  and  _383
REMARK  151  A    between atoms: _393  and  _395
REMARK  152  A    between atoms: _395  and  _396
REMARK  153  A    between atoms: _395  and  _398
REMARK  154  A    between atoms: _398  and  _399
REMARK  155  A    between atoms: _401  and  _403
REMARK  156  A    between atoms: _403  and  _404
REMARK  157  A    between atoms: _403  and  _406
REMARK  158  A    between atoms: _406  and  _407
REMARK  159  A    between atoms: _412  and  _413
REMARK  160  A    between atoms: _415  and  _417
REMARK  161  A    between atoms: _417  and  _418
REMARK  162  A    between atoms: _417  and  _420
REMARK  163  A    between atoms: _420  and  _421
REMARK  164  A    between atoms: _426  and  _427
REMARK  165  A    between atoms: _429  and  _431
REMARK  166  A    between atoms: _431  and  _432
REMARK  167  A    between atoms: _431  and  _434
REMARK  168  A    between atoms: _434  and  _435
REMARK  169  A    between atoms: _438  and  _440
REMARK  170  A    between atoms: _440  and  _441
REMARK  171  A    between atoms: _443  and  _445
REMARK  172  A    between atoms: _445  and  _446
REMARK  173  A    between atoms: _445  and  _448
REMARK  174  A    between atoms: _448  and  _449
REMARK  175  A    between atoms: _454  and  _455
REMARK  176  A    between atoms: _457  and  _459
REMARK  177  A    between atoms: _459  and  _460
REMARK  178  A    between atoms: _459  and  _462
REMARK  179  A    between atoms: _462  and  _463
REMARK  180  A    between atoms: _466  and  _468
REMARK  181  A    between atoms: _468  and  _469
REMARK  182  A    between atoms: _468  and  _471
REMARK  183  A    between atoms: _471  and  _472
REMARK  184  A    between atoms: _472  and  _473
REMARK  185  A    between atoms: _473  and  _474
REMARK  186  A    between atoms: _483  and  _485
REMARK  187  A    between atoms: _485  and  _486
REMARK  188  A    between atoms: _485  and  _488
REMARK  189  A    between atoms: _488  and  _489
REMARK  190  A    between atoms: _492  and  _494
REMARK  191  A    between atoms: _494  and  _495
REMARK  192  A    between atoms: _494  and  _497
REMARK  193  A    between atoms: _497  and  _498
REMARK  194  A    between atoms: _501  and  _503
REMARK  195  A    between atoms: _503  and  _504
REMARK  196  A    between atoms: _503  and  _506
REMARK  197  A    between atoms: _506  and  _507
REMARK  198  A    between atoms: _507  and  _508
REMARK  199  A    between atoms: _508  and  _509
REMARK  200  A    between atoms: _518  and  _520
REMARK  201  A    between atoms: _520  and  _521
REMARK  202  A    between atoms: _520  and  _523
REMARK  203  A    between atoms: _523  and  _524
REMARK  204  A    between atoms: _524  and  _525
REMARK  205  A    between atoms: _530  and  _532
REMARK  206  A    between atoms: _532  and  _533
REMARK  207  A    between atoms: _532  and  _535
REMARK  208  A    between atoms: _535  and  _536
REMARK  209  A    between atoms: _536  and  _537
REMARK  210  A    between atoms: _537  and  _538
REMARK  211  A    between atoms: _547  and  _549
REMARK  212  A    between atoms: _549  and  _550
REMARK  213  A    between atoms: _553  and  _555
REMARK  214  A    between atoms: _555  and  _556
REMARK  215  A    between atoms: _558  and  _560
REMARK  216  A    between atoms: _560  and  _561
REMARK  217  A    between atoms: _560  and  _563
REMARK  218  A    between atoms: _563  and  _564
REMARK  219  A    between atoms: _567  and  _569
REMARK  220  A    between atoms: _569  and  _570
REMARK  221  A    between atoms: _569  and  _572
REMARK  222  A    between atoms: _572  and  _573
REMARK  223  A    between atoms: _573  and  _574
REMARK  224  A    between atoms: _574  and  _575
REMARK  225  A    between atoms: _584  and  _586
REMARK  226  A    between atoms: _586  and  _587
REMARK  227  A    between atoms: _586  and  _589
REMARK  228  A    between atoms: _592  and  _594
REMARK  229  A    between atoms: _594  and  _595
REMARK  230  A    between atoms: _594  and  _597
REMARK  231  A    between atoms: _597  and  _598
REMARK  232  A    between atoms: _603  and  _604
REMARK  233  A    between atoms: _606  and  _608
REMARK  234  A    between atoms: _608  and  _609
REMARK  235  A    between atoms: _608  and  _611
REMARK  236  A    between atoms: _611  and  _612
REMARK  237  A    between atoms: _614  and  _616
REMARK  238  A    between atoms: _616  and  _617
REMARK  239  A    between atoms: _616  and  _619
REMARK  240  A    between atoms: _619  and  _620
REMARK  241  A    between atoms: _625  and  _627
REMARK  242  A    between atoms: _627  and  _628
REMARK  243  A    between atoms: _627  and  _630
REMARK  244  A    between atoms: _630  and  _631
REMARK  245  A    between atoms: _631  and  _632
REMARK  246  A    between atoms: _635  and  _637
REMARK  247  A    between atoms: _637  and  _638
REMARK  248  A    between atoms: _637  and  _640
REMARK  249  A    between atoms: _640  and  _641
REMARK  250  A    between atoms: _646  and  _647
REMARK  251  A    between atoms: _649  and  _651
REMARK  252  A    between atoms: _651  and  _652
REMARK  253  A    between atoms: _655  and  _657
REMARK  254  A    between atoms: _657  and  _658
REMARK  255  A    between atoms: _657  and  _660
REMARK  256  A    between atoms: _660  and  _661
REMARK  257  A    between atoms: _665  and  _666
REMARK  258  A    between atoms: _671  and  _673
REMARK  259  A    between atoms: _673  and  _674
REMARK  260  A    between atoms: _673  and  _676
REMARK  261  A    between atoms: _676  and  _677
REMARK  262  A    between atoms: _680  and  _682
REMARK  263  A    between atoms: _682  and  _683
REMARK  264  A    between atoms: _682  and  _685
REMARK  265  A    between atoms: _685  and  _686
REMARK  266  A    between atoms: _686  and  _687
REMARK  267  A    between atoms: _692  and  _694
REMARK  268  A    between atoms: _694  and  _695
REMARK  269  A    between atoms: _694  and  _697
REMARK  270  A    between atoms: _697  and  _698
REMARK  271  A    between atoms: _701  and  _703
REMARK  272  A    between atoms: _703  and  _704
REMARK  273  A    between atoms: _703  and  _706
REMARK  274  A    between atoms: _706  and  _707
REMARK  275  A    between atoms: _710  and  _712
REMARK  276  A    between atoms: _712  and  _713
REMARK  277  A    between atoms: _712  and  _715
REMARK  278  A    between atoms: _715  and  _716
REMARK                            x       y       z     vdW  Elec       q    Type
REMARK                         _______ _______ _______ _____ _____    ______ ____
ROOT
ATOM      1  CA  LEU A   1      31.197   8.881 -13.411  0.00  0.00    +0.133 C 
ENDROOT
BRANCH   1   2
ATOM      2  N   LEU A   1      30.484   9.066 -12.163  0.00  0.00    -0.239 NA
ATOM      3  H   LEU A   1      30.813   8.549 -11.323  0.00  0.00    +0.142 HD
ENDBRANCH   1   2
BRANCH   1   4
ATOM      4  C   LEU A   1      30.520   7.753 -14.186  0.00  0.00    +0.224 C 
ATOM      5  O   LEU A   1      30.383   6.631 -13.681  0.00  0.00    -0.287 OA
ENDBRANCH   1   4
BRANCH   1   6
ATOM      6  CB  LEU A   1      32.645   8.499 -13.107  0.00  0.00    +0.025 C 
BRANCH   6   7
ATOM      7  CG  LEU A   1      33.463   8.096 -14.334  0.00  0.00    +0.002 C 
ATOM      8  CD2 LEU A   1      34.854   7.657 -13.907  0.00  0.00    +0.000 C 
ATOM      9  CD1 LEU A   1      33.537   9.272 -15.295  0.00  0.00    +0.000 C 
ENDBRANCH   6   7
ENDBRANCH   1   6
TORSDOF 4
REMARK  Name = ../refined-set-2016/4ksy/4ksy_pocket.pdb
REMARK  278 active torsions:
REMARK  status: ('A' for Active; 'I' for Inactive)
REMARK    1  A    between atoms: _1  and  _3
REMARK    2  A    between atoms: _3  and  _4
REMARK    3  A    between atoms: _6  and  _8
REMARK    4  A    between atoms: _8  and  _9
REMARK    5  A    between atoms: _8  and  _11
REMARK    6  A    between atoms: _11  and  _12
REMARK    7  A    between atoms: _15  and  _17
REMARK    8  A    between atoms: _17  and  _18
REMARK    9  A    between atoms: _21  and  _23
REMARK   10  A    between atoms: _23  and  _24
REMARK   11  A    between atoms: _23  and  _26
REMARK   12  A    between atoms: _26  and  _27
REMARK   13  A    between atoms: _37  and  _39
REMARK   14  A    between atoms: _39  and  _40
REMARK   15  A    between atoms: _39  and  _42
REMARK   16  A    between atoms: _42  and  _43
REMARK   17  A    between atoms: _45  and  _47
REMARK   18  A    between atoms: _47  and  _48
REMARK   19  A    between atoms: _47  and  _50
REMARK   20  A    between atoms: _50  and  _51
REMARK   21  A    between atoms: _56  and  _57
REMARK   22  A    between atoms: _59  and  _61
REMARK   23  A    between atoms: _61  and  _62
REMARK   24  A    between atoms: _61  and  _64
REMARK   25  A    between atoms: _64  and  _65
REMARK   26  A    between atoms: _70  and  _71
REMARK   27  A    between atoms: _73  and  _75
REMARK   28  A    between atoms: _75  and  _76
REMARK   29  A    between atoms: _75  and  _78
REMARK   30  A    between atoms: _78  and  _79
REMARK   31  A    between atoms: _82  and  _84
REMARK   32  A    between atoms: _84  and  _85
REMARK   33  A    between atoms: _87  and  _89
REMARK   34  A    between atoms: _89  and  _90
REMARK   35  A    between atoms: _89  and  _92
REMARK   36  A    between atoms: _92  and  _93
REMARK   37  A    between atoms: _98  and  _99
REMARK   38  A    between atoms: _101  and  _103
REMARK   39  A    between atoms: _103  and  _104
REMARK   40  A    between atoms: _103  and  _106
REMARK   41  A    between atoms: _106  and  _107
REMARK   42  A    between atoms: _110  and  _112
REMARK   43  A    between atoms: _112  and  _113
REMARK   44  A    between atoms: _112  and  _115
REMARK   45  A    between atoms: _115  and  _116
REMARK   46  A    between atoms: _116  and  _117
REMARK   47  A    between atoms: _117  and  _118
REMARK   48  A    between atoms: _127  and  _129
REMARK   49  A    between atoms: _129  and  _130
REMARK   50  A    between atoms: _129  and  _132
REMARK   51  A    between atoms: _132  and  _133
REMARK   52  A    between atoms: _136  and  _138
REMARK   53  A    between atoms: _138  and  _139
REMARK   54  A    between atoms: _138  and  _141
REMARK   55  A    between atoms: _141  and  _142
REMARK   56  A    between atoms: _145  and  _147
REMARK   57  A    between atoms: _147  and  _148
REMARK   58  A    between atoms: _147  and  _150
REMARK   59  A    between atoms: _150  and  _151
REMARK   60  A    between atoms: _154  and  _156
REMARK   61  A    between atoms: _156  and  _157
REMARK   62  A    between atoms: _156  and  _159
REMARK   63  A    between atoms: _159  and  _160
REMARK   64  A    between atoms: _163  and  _165
REMARK   65  A    between atoms: _165  and  _166
REMARK   66  A    between atoms: _165  and  _168
REMARK   67  A    between atoms: _168  and  _169
REMARK   68  A    between atoms: _169  and  _170
REMARK   69  A    between atoms: _175  and  _177
REMARK   70  A    between atoms: _177  and  _178
REMARK   71  A    between atoms: _177  and  _180
REMARK   72  A    between atoms: _180  and  _181
REMARK   73  A    between atoms: _181  and  _182
REMARK   74  A    between atoms: _182  and  _183
REMARK   75  A    between atoms: _192  and  _194
REMARK   76  A    between atoms: _194  and  _195
REMARK   77  A    between atoms: _198  and  _200
REMARK   78  A    between atoms: _200  and  _201
REMARK   79  A    between atoms: _200  and  _203
REMARK   80  A    between atoms: _203  and  _204
REMARK   81  A    between atoms: _207  and  _209
REMARK   82  A    between atoms: _209  and  _210
REMARK   83  A    between atoms: _209  and  _212
REMARK   84  A    between atoms: _212  and  _213
REMARK   85  A    between atoms: _216  and  _218
REMARK   86  A    between atoms: _218  and  _219
REMARK   87  A    between atoms: _218  and  _221
REMARK   88  A    between atoms: _221  and  _222
REMARK   89  A    between atoms: _222  and  _223
REMARK   90  A    between atoms: _223  and  _224
REMARK   91  A    between atoms: _233  and  _235
REMARK   92  A    between atoms: _235  and  _236
REMARK   93  A    between atoms: _235  and  _238
REMARK   94  A    between atoms: _241  and  _243
REMARK   95  A    between atoms: _243  and  _244
REMARK   96  A    between atoms: _243  and  _246
REMARK   97  A    between atoms: _246  and  _247
REMARK   98  A    between atoms: _252  and  _253
REMARK   99  A    between atoms: _255  and  _257
REMARK  100  A    between atoms: _257  and  _258
REMARK  101  A    between atoms: _257  and  _260
REMARK  102  A    between atoms: _260  and  _261
REMARK  103  A    between atoms: _263  and  _265
REMARK  104  A    between atoms: _265  and  _266
REMARK  105  A    between atoms: _265  and  _268
REMARK  106  A    between atoms: _268  and  _269
REMARK  107  A    between atoms: _274  and  _276
REMARK  108  A    between atoms: _276  and  _277
REMARK  109  A    between atoms: _276  and  _279
REMARK  110  A    between atoms: _279  and  _280
REMARK  111  A    between atoms: _280  and  _281
REMARK  112  A    between atoms: _284  and  _286
REMARK  113  A    between atoms: _286  and  _287
REMARK  114  A    between atoms: _286  and  _289
REMARK  115  A    between atoms: _289  and  _290
REMARK  116  A    between atoms: _295  and  _296
REMARK  117  A    between atoms: _298  and  _300
REMARK  118  A    between atoms: _300  and  _301
REMARK  119  A    between atoms: _304  and  _306
REMARK  120  A    between atoms: _306  and  _307
REMARK  121  A    between atoms: _306  and  _309
REMARK  122  A    between atoms: _309  and  _310
REMARK  123  A    between atoms: _314  and  _315
REMARK  124  A    between atoms: _320  and  _322
REMARK  125  A    between atoms: _322  and  _323
REMARK  126  A    between atoms: _322  and  _325
REMARK  127  A    between atoms: _325  and  _326
REMARK  128  A    between atoms: _329  and  _331
REMARK  129  A    between atoms: _331  and  _332
REMARK  130  A    between atoms: _331  and  _334
REMARK  131  A    between atoms: _334  and  _335
REMARK  132  A    between atoms: _335  and  _336
REMARK  133  A    between atoms: _341  and  _343
REMARK  134  A    between atoms: _343  and  _344
REMARK  135  A    between atoms: _343  and  _346
REMARK  136  A    between atoms: _346  and  _347
REMARK  137  A    between atoms: _350  and  _352
REMARK  138  A    between atoms: _352  and  _353
REMARK  139  A    between atoms: _352  and  _355
REMARK  140  A    between atoms: _355  and  _356
REMARK  141  A    between atoms: _362  and  _364
REMARK  142  A    between atoms: _364  and  _365
REMARK  143  A    between atoms: _364  and  _367
REMARK  144  A    between atoms: _367  and  _368
REMARK  145  A    between atoms: _371  and  _373
REMARK  146  A    between atoms: _373  and  _374
REMARK  147  A    between atoms: _377  and  _379
REMARK  148  A    between atoms: _379  and  _380
REMARK  149  A    between atoms: _379  and  _382
REMARK  150  A    between atoms: _382  and  _383
REMARK  151  A    between atoms: _393  and  _395
REMARK  152  A    between atoms: _395  and  _396
REMARK  153  A    between atoms: _395  and  _398
REMARK  154  A    between atoms: _398  and  _399
REMARK  155  A    between atoms: _401  and  _403
REMARK  156  A    between atoms: _403  and  _404
REMARK  157  A    between atoms: _403  and  _406
REMARK  158  A    between atoms: _406  and  _407
REMARK  159  A    between atoms: _412  and  _413
REMARK  160  A    between atoms: _415  and  _417
REMARK  161  A    between atoms: _417  and  _418
REMARK  162  A    between atoms: _417  and  _420
REMARK  163  A    between atoms: _420  and  _421
REMARK  164  A    between atoms: _426  and  _427
REMARK  165  A    between atoms: _429  and  _431
REMARK  166  A    between atoms: _431  and  _432
REMARK  167  A    between atoms: _431  and  _434
REMARK  168  A    between atoms: _434  and  _435
REMARK  169  A    between atoms: _438  and  _440
REMARK  170  A    between atoms: _440  and  _441
REMARK  171  A    between atoms: _443  and  _445
REMARK  172  A    between atoms: _445  and  _446
REMARK  173  A    between atoms: _445  and  _448
REMARK  174  A    between atoms: _448  and  _449
REMARK  175  A    between atoms: _454  and  _455
REMARK  176  A    between atoms: _457  and  _459
REMARK  177  A    between atoms: _459  and  _460
REMARK  178  A    between atoms: _459  and  _462
REMARK  179  A    between atoms: _462  and  _463
REMARK  180  A    between atoms: _466  and  _468
REMARK  181  A    between atoms: _468  and  _469
REMARK  182  A    between atoms: _468  and  _471
REMARK  183  A    between atoms: _471  and  _472
REMARK  184  A    between atoms: _472  and  _473
REMARK  185  A    between atoms: _473  and  _474
REMARK  186  A    between atoms: _483  and  _485
REMARK  187  A    between atoms: _485  and  _486
REMARK  188  A    between atoms: _485  and  _488
REMARK  189  A    between atoms: _488  and  _489
REMARK  190  A    between atoms: _492  and  _494
REMARK  191  A    between atoms: _494  and  _495
REMARK  192  A    between atoms: _494  and  _497
REMARK  193  A    between atoms: _497  and  _498
REMARK  194  A    between atoms: _501  and  _503
REMARK  195  A    between atoms: _503  and  _504
REMARK  196  A    between atoms: _503  and  _506
REMARK  197  A    between atoms: _506  and  _507
REMARK  198  A    between atoms: _507  and  _508
REMARK  199  A    between atoms: _508  and  _509
REMARK  200  A    between atoms: _518  and  _520
REMARK  201  A    between atoms: _520  and  _521
REMARK  202  A    between atoms: _520  and  _523
REMARK  203  A    between atoms: _523  and  _524
REMARK  204  A    between atoms: _524  and  _525
REMARK  205  A    between atoms: _530  and  _532
REMARK  206  A    between atoms: _532  and  _533
REMARK  207  A    between atoms: _532  and  _535
REMARK  208  A    between atoms: _535  and  _536
REMARK  209  A    between atoms: _536  and  _537
REMARK  210  A    between atoms: _537  and  _538
REMARK  211  A    between atoms: _547  and  _549
REMARK  212  A    between atoms: _549  and  _550
REMARK  213  A    between atoms: _553  and  _555
REMARK  214  A    between atoms: _555  and  _556
REMARK  215  A    between atoms: _558  and  _560
REMARK  216  A    between atoms: _560  and  _561
REMARK  217  A    between atoms: _560  and  _563
REMARK  218  A    between atoms: _563  and  _564
REMARK  219  A    between atoms: _567  and  _569
REMARK  220  A    between atoms: _569  and  _570
REMARK  221  A    between atoms: _569  and  _572
REMARK  222  A    between atoms: _572  and  _573
REMARK  223  A    between atoms: _573  and  _574
REMARK  224  A    between atoms: _574  and  _575
REMARK  225  A    between atoms: _584  and  _586
REMARK  226  A    between atoms: _586  and  _587
REMARK  227  A    between atoms: _586  and  _589
REMARK  228  A    between atoms: _592  and  _594
REMARK  229  A    between atoms: _594  and  _595
REMARK  230  A    between atoms: _594  and  _597
REMARK  231  A    between atoms: _597  and  _598
REMARK  232  A    between atoms: _603  and  _604
REMARK  233  A    between atoms: _606  and  _608
REMARK  234  A    between atoms: _608  and  _609
REMARK  235  A    between atoms: _608  and  _611
REMARK  236  A    between atoms: _611  and  _612
REMARK  237  A    between atoms: _614  and  _616
REMARK  238  A    between atoms: _616  and  _617
REMARK  239  A    between atoms: _616  and  _619
REMARK  240  A    between atoms: _619  and  _620
REMARK  241  A    between atoms: _625  and  _627
REMARK  242  A    between atoms: _627  and  _628
REMARK  243  A    between atoms: _627  and  _630
REMARK  244  A    between atoms: _630  and  _631
REMARK  245  A    between atoms: _631  and  _632
REMARK  246  A    between atoms: _635  and  _637
REMARK  247  A    between atoms: _637  and  _638
REMARK  248  A    between atoms: _637  and  _640
REMARK  249  A    between atoms: _640  and  _641
REMARK  250  A    between atoms: _646  and  _647
REMARK  251  A    between atoms: _649  and  _651
REMARK  252  A    between atoms: _651  and  _652
REMARK  253  A    between atoms: _655  and  _657
REMARK  254  A    between atoms: _657  and  _658
REMARK  255  A    between atoms: _657  and  _660
REMARK  256  A    between atoms: _660  and  _661
REMARK  257  A    between atoms: _665  and  _666
REMARK  258  A    between atoms: _671  and  _673
REMARK  259  A    between atoms: _673  and  _674
REMARK  260  A    between atoms: _673  and  _676
REMARK  261  A    between atoms: _676  and  _677
REMARK  262  A    between atoms: _680  and  _682
REMARK  263  A    between atoms: _682  and  _683
REMARK  264  A    between atoms: _682  and  _685
REMARK  265  A    between atoms: _685  and  _686
REMARK  266  A    between atoms: _686  and  _687
REMARK  267  A    between atoms: _692  and  _694
REMARK  268  A    between atoms: _694  and  _695
REMARK  269  A    between atoms: _694  and  _697
REMARK  270  A    between atoms: _697  and  _698
REMARK  271  A    between atoms: _701  and  _703
REMARK  272  A    between atoms: _703  and  _704
REMARK  273  A    between atoms: _703  and  _706
REMARK  274  A    between atoms: _706  and  _707
REMARK  275  A    between atoms: _710  and  _712
REMARK  276  A    between atoms: _712  and  _713
REMARK  277  A    between atoms: _712  and  _715
REMARK  278  A    between atoms: _715  and  _716
REMARK                            x       y       z     vdW  Elec       q    Type
REMARK                         _______ _______ _______ _____ _____    ______ ____
ROOT
ATOM      1  CA  ILE A   1      31.791   4.507 -17.867  0.00  0.00    +0.133 C 
ENDROOT
BRANCH   1   2
ATOM      2  N   ILE A   1      30.718   5.146 -17.105  0.00  0.00    -0.239 NA
ATOM      3  H   ILE A   1      30.122   4.568 -16.479  0.00  0.00    +0.142 HD
ENDBRANCH   1   2
BRANCH   1   4
ATOM      4  CB  ILE A   1      32.727   3.717 -16.940  0.00  0.00    +0.023 C 
ATOM      5  CG2 ILE A   1      33.830   3.024 -17.766  0.00  0.00    +0.002 C 
BRANCH   4   6
ATOM      6  CG1 ILE A   1      33.334   4.653 -15.880  0.00  0.00    +0.002 C 
ATOM      7  CD1 ILE A   1      34.088   3.922 -14.802  0.00  0.00    +0.000 C 
ENDBRANCH   4   6
ENDBRANCH   1   4
BRANCH   1   8
ATOM      8  C   ILE A   1      31.204   3.562 -18.913  0.00  0.00    +0.224 C 
ATOM      9  O   ILE A   1      30.496   2.600 -18.583  0.00  0.00    -0.287 OA
ENDBRANCH   1   8
TORSDOF 4
REMARK  Name = ../refined-set-2016/4ksy/4ksy_pocket.pdb
REMARK  278 active torsions:
REMARK  status: ('A' for Active; 'I' for Inactive)
REMARK    1  A    between atoms: _1  and  _3
REMARK    2  A    between atoms: _3  and  _4
REMARK    3  A    between atoms: _6  and  _8
REMARK    4  A    between atoms: _8  and  _9
REMARK    5  A    between atoms: _8  and  _11
REMARK    6  A    between atoms: _11  and  _12
REMARK    7  A    between atoms: _15  and  _17
REMARK    8  A    between atoms: _17  and  _18
REMARK    9  A    between atoms: _21  and  _23
REMARK   10  A    between atoms: _23  and  _24
REMARK   11  A    between atoms: _23  and  _26
REMARK   12  A    between atoms: _26  and  _27
REMARK   13  A    between atoms: _37  and  _39
REMARK   14  A    between atoms: _39  and  _40
REMARK   15  A    between atoms: _39  and  _42
REMARK   16  A    between atoms: _42  and  _43
REMARK   17  A    between atoms: _45  and  _47
REMARK   18  A    between atoms: _47  and  _48
REMARK   19  A    between atoms: _47  and  _50
REMARK   20  A    between atoms: _50  and  _51
REMARK   21  A    between atoms: _56  and  _57
REMARK   22  A    between atoms: _59  and  _61
REMARK   23  A    between atoms: _61  and  _62
REMARK   24  A    between atoms: _61  and  _64
REMARK   25  A    between atoms: _64  and  _65
REMARK   26  A    between atoms: _70  and  _71
REMARK   27  A    between atoms: _73  and  _75
REMARK   28  A    between atoms: _75  and  _76
REMARK   29  A    between atoms: _75  and  _78
REMARK   30  A    between atoms: _78  and  _79
REMARK   31  A    between atoms: _82  and  _84
REMARK   32  A    between atoms: _84  and  _85
REMARK   33  A    between atoms: _87  and  _89
REMARK   34  A    between atoms: _89  and  _90
REMARK   35  A    between atoms: _89  and  _92
REMARK   36  A    between atoms: _92  and  _93
REMARK   37  A    between atoms: _98  and  _99
REMARK   38  A    between atoms: _101  and  _103
REMARK   39  A    between atoms: _103  and  _104
REMARK   40  A    between atoms: _103  and  _106
REMARK   41  A    between atoms: _106  and  _107
REMARK   42  A    between atoms: _110  and  _112
REMARK   43  A    between atoms: _112  and  _113
REMARK   44  A    between atoms: _112  and  _115
REMARK   45  A    between atoms: _115  and  _116
REMARK   46  A    between atoms: _116  and  _117
REMARK   47  A    between atoms: _117  and  _118
REMARK   48  A    between atoms: _127  and  _129
REMARK   49  A    between atoms: _129  and  _130
REMARK   50  A    between atoms: _129  and  _132
REMARK   51  A    between atoms: _132  and  _133
REMARK   52  A    between atoms: _136  and  _138
REMARK   53  A    between atoms: _138  and  _139
REMARK   54  A    between atoms: _138  and  _141
REMARK   55  A    between atoms: _141  and  _142
REMARK   56  A    between atoms: _145  and  _147
REMARK   57  A    between atoms: _147  and  _148
REMARK   58  A    between atoms: _147  and  _150
REMARK   59  A    between atoms: _150  and  _151
REMARK   60  A    between atoms: _154  and  _156
REMARK   61  A    between atoms: _156  and  _157
REMARK   62  A    between atoms: _156  and  _159
REMARK   63  A    between atoms: _159  and  _160
REMARK   64  A    between atoms: _163  and  _165
REMARK   65  A    between atoms: _165  and  _166
REMARK   66  A    between atoms: _165  and  _168
REMARK   67  A    between atoms: _168  and  _169
REMARK   68  A    between atoms: _169  and  _170
REMARK   69  A    between atoms: _175  and  _177
REMARK   70  A    between atoms: _177  and  _178
REMARK   71  A    between atoms: _177  and  _180
REMARK   72  A    between atoms: _180  and  _181
REMARK   73  A    between atoms: _181  and  _182
REMARK   74  A    between atoms: _182  and  _183
REMARK   75  A    between atoms: _192  and  _194
REMARK   76  A    between atoms: _194  and  _195
REMARK   77  A    between atoms: _198  and  _200
REMARK   78  A    between atoms: _200  and  _201
REMARK   79  A    between atoms: _200  and  _203
REMARK   80  A    between atoms: _203  and  _204
REMARK   81  A    between atoms: _207  and  _209
REMARK   82  A    between atoms: _209  and  _210
REMARK   83  A    between atoms: _209  and  _212
REMARK   84  A    between atoms: _212  and  _213
REMARK   85  A    between atoms: _216  and  _218
REMARK   86  A    between atoms: _218  and  _219
REMARK   87  A    between atoms: _218  and  _221
REMARK   88  A    between atoms: _221  and  _222
REMARK   89  A    between atoms: _222  and  _223
REMARK   90  A    between atoms: _223  and  _224
REMARK   91  A    between atoms: _233  and  _235
REMARK   92  A    between atoms: _235  and  _236
REMARK   93  A    between atoms: _235  and  _238
REMARK   94  A    between atoms: _241  and  _243
REMARK   95  A    between atoms: _243  and  _244
REMARK   96  A    between atoms: _243  and  _246
REMARK   97  A    between atoms: _246  and  _247
REMARK   98  A    between atoms: _252  and  _253
REMARK   99  A    between atoms: _255  and  _257
REMARK  100  A    between atoms: _257  and  _258
REMARK  101  A    between atoms: _257  and  _260
REMARK  102  A    between atoms: _260  and  _261
REMARK  103  A    between atoms: _263  and  _265
REMARK  104  A    between atoms: _265  and  _266
REMARK  105  A    between atoms: _265  and  _268
REMARK  106  A    between atoms: _268  and  _269
REMARK  107  A    between atoms: _274  and  _276
REMARK  108  A    between atoms: _276  and  _277
REMARK  109  A    between atoms: _276  and  _279
REMARK  110  A    between atoms: _279  and  _280
REMARK  111  A    between atoms: _280  and  _281
REMARK  112  A    between atoms: _284  and  _286
REMARK  113  A    between atoms: _286  and  _287
REMARK  114  A    between atoms: _286  and  _289
REMARK  115  A    between atoms: _289  and  _290
REMARK  116  A    between atoms: _295  and  _296
REMARK  117  A    between atoms: _298  and  _300
REMARK  118  A    between atoms: _300  and  _301
REMARK  119  A    between atoms: _304  and  _306
REMARK  120  A    between atoms: _306  and  _307
REMARK  121  A    between atoms: _306  and  _309
REMARK  122  A    between atoms: _309  and  _310
REMARK  123  A    between atoms: _314  and  _315
REMARK  124  A    between atoms: _320  and  _322
REMARK  125  A    between atoms: _322  and  _323
REMARK  126  A    between atoms: _322  and  _325
REMARK  127  A    between atoms: _325  and  _326
REMARK  128  A    between atoms: _329  and  _331
REMARK  129  A    between atoms: _331  and  _332
REMARK  130  A    between atoms: _331  and  _334
REMARK  131  A    between atoms: _334  and  _335
REMARK  132  A    between atoms: _335  and  _336
REMARK  133  A    between atoms: _341  and  _343
REMARK  134  A    between atoms: _343  and  _344
REMARK  135  A    between atoms: _343  and  _346
REMARK  136  A    between atoms: _346  and  _347
REMARK  137  A    between atoms: _350  and  _352
REMARK  138  A    between atoms: _352  and  _353
REMARK  139  A    between atoms: _352  and  _355
REMARK  140  A    between atoms: _355  and  _356
REMARK  141  A    between atoms: _362  and  _364
REMARK  142  A    between atoms: _364  and  _365
REMARK  143  A    between atoms: _364  and  _367
REMARK  144  A    between atoms: _367  and  _368
REMARK  145  A    between atoms: _371  and  _373
REMARK  146  A    between atoms: _373  and  _374
REMARK  147  A    between atoms: _377  and  _379
REMARK  148  A    between atoms: _379  and  _380
REMARK  149  A    between atoms: _379  and  _382
REMARK  150  A    between atoms: _382  and  _383
REMARK  151  A    between atoms: _393  and  _395
REMARK  152  A    between atoms: _395  and  _396
REMARK  153  A    between atoms: _395  and  _398
REMARK  154  A    between atoms: _398  and  _399
REMARK  155  A    between atoms: _401  and  _403
REMARK  156  A    between atoms: _403  and  _404
REMARK  157  A    between atoms: _403  and  _406
REMARK  158  A    between atoms: _406  and  _407
REMARK  159  A    between atoms: _412  and  _413
REMARK  160  A    between atoms: _415  and  _417
REMARK  161  A    between atoms: _417  and  _418
REMARK  162  A    between atoms: _417  and  _420
REMARK  163  A    between atoms: _420  and  _421
REMARK  164  A    between atoms: _426  and  _427
REMARK  165  A    between atoms: _429  and  _431
REMARK  166  A    between atoms: _431  and  _432
REMARK  167  A    between atoms: _431  and  _434
REMARK  168  A    between atoms: _434  and  _435
REMARK  169  A    between atoms: _438  and  _440
REMARK  170  A    between atoms: _440  and  _441
REMARK  171  A    between atoms: _443  and  _445
REMARK  172  A    between atoms: _445  and  _446
REMARK  173  A    between atoms: _445  and  _448
REMARK  174  A    between atoms: _448  and  _449
REMARK  175  A    between atoms: _454  and  _455
REMARK  176  A    between atoms: _457  and  _459
REMARK  177  A    between atoms: _459  and  _460
REMARK  178  A    between atoms: _459  and  _462
REMARK  179  A    between atoms: _462  and  _463
REMARK  180  A    between atoms: _466  and  _468
REMARK  181  A    between atoms: _468  and  _469
REMARK  182  A    between atoms: _468  and  _471
REMARK  183  A    between atoms: _471  and  _472
REMARK  184  A    between atoms: _472  and  _473
REMARK  185  A    between atoms: _473  and  _474
REMARK  186  A    between atoms: _483  and  _485
REMARK  187  A    between atoms: _485  and  _486
REMARK  188  A    between atoms: _485  and  _488
REMARK  189  A    between atoms: _488  and  _489
REMARK  190  A    between atoms: _492  and  _494
REMARK  191  A    between atoms: _494  and  _495
REMARK  192  A    between atoms: _494  and  _497
REMARK  193  A    between atoms: _497  and  _498
REMARK  194  A    between atoms: _501  and  _503
REMARK  195  A    between atoms: _503  and  _504
REMARK  196  A    between atoms: _503  and  _506
REMARK  197  A    between atoms: _506  and  _507
REMARK  198  A    between atoms: _507  and  _508
REMARK  199  A    between atoms: _508  and  _509
REMARK  200  A    between atoms: _518  and  _520
REMARK  201  A    between atoms: _520  and  _521
REMARK  202  A    between atoms: _520  and  _523
REMARK  203  A    between atoms: _523  and  _524
REMARK  204  A    between atoms: _524  and  _525
REMARK  205  A    between atoms: _530  and  _532
REMARK  206  A    between atoms: _532  and  _533
REMARK  207  A    between atoms: _532  and  _535
REMARK  208  A    between atoms: _535  and  _536
REMARK  209  A    between atoms: _536  and  _537
REMARK  210  A    between atoms: _537  and  _538
REMARK  211  A    between atoms: _547  and  _549
REMARK  212  A    between atoms: _549  and  _550
REMARK  213  A    between atoms: _553  and  _555
REMARK  214  A    between atoms: _555  and  _556
REMARK  215  A    between atoms: _558  and  _560
REMARK  216  A    between atoms: _560  and  _561
REMARK  217  A    between atoms: _560  and  _563
REMARK  218  A    between atoms: _563  and  _564
REMARK  219  A    between atoms: _567  and  _569
REMARK  220  A    between atoms: _569  and  _570
REMARK  221  A    between atoms: _569  and  _572
REMARK  222  A    between atoms: _572  and  _573
REMARK  223  A    between atoms: _573  and  _574
REMARK  224  A    between atoms: _574  and  _575
REMARK  225  A    between atoms: _584  and  _586
REMARK  226  A    between atoms: _586  and  _587
REMARK  227  A    between atoms: _586  and  _589
REMARK  228  A    between atoms: _592  and  _594
REMARK  229  A    between atoms: _594  and  _595
REMARK  230  A    between atoms: _594  and  _597
REMARK  231  A    between atoms: _597  and  _598
REMARK  232  A    between atoms: _603  and  _604
REMARK  233  A    between atoms: _606  and  _608
REMARK  234  A    between atoms: _608  and  _609
REMARK  235  A    between atoms: _608  and  _611
REMARK  236  A    between atoms: _611  and  _612
REMARK  237  A    between atoms: _614  and  _616
REMARK  238  A    between atoms: _616  and  _617
REMARK  239  A    between atoms: _616  and  _619
REMARK  240  A    between atoms: _619  and  _620
REMARK  241  A    between atoms: _625  and  _627
REMARK  242  A    between atoms: _627  and  _628
REMARK  243  A    between atoms: _627  and  _630
REMARK  244  A    between atoms: _630  and  _631
REMARK  245  A    between atoms: _631  and  _632
REMARK  246  A    between atoms: _635  and  _637
REMARK  247  A    between atoms: _637  and  _638
REMARK  248  A    between atoms: _637  and  _640
REMARK  249  A    between atoms: _640  and  _641
REMARK  250  A    between atoms: _646  and  _647
REMARK  251  A    between atoms: _649  and  _651
REMARK  252  A    between atoms: _651  and  _652
REMARK  253  A    between atoms: _655  and  _657
REMARK  254  A    between atoms: _657  and  _658
REMARK  255  A    between atoms: _657  and  _660
REMARK  256  A    between atoms: _660  and  _661
REMARK  257  A    between atoms: _665  and  _666
REMARK  258  A    between atoms: _671  and  _673
REMARK  259  A    between atoms: _673  and  _674
REMARK  260  A    between atoms: _673  and  _676
REMARK  261  A    between atoms: _676  and  _677
REMARK  262  A    between atoms: _680  and  _682
REMARK  263  A    between atoms: _682  and  _683
REMARK  264  A    between atoms: _682  and  _685
REMARK  265  A    between atoms: _685  and  _686
REMARK  266  A    between atoms: _686  and  _687
REMARK  267  A    between atoms: _692  and  _694
REMARK  268  A    between atoms: _694  and  _695
REMARK  269  A    between atoms: _694  and  _697
REMARK  270  A    between atoms: _697  and  _698
REMARK  271  A    between atoms: _701  and  _703
REMARK  272  A    between atoms: _703  and  _704
REMARK  273  A    between atoms: _703  and  _706
REMARK  274  A    between atoms: _706  and  _707
REMARK  275  A    between atoms: _710  and  _712
REMARK  276  A    between atoms: _712  and  _713
REMARK  277  A    between atoms: _712  and  _715
REMARK  278  A    between atoms: _715  and  _716
REMARK                            x       y       z     vdW  Elec       q    Type
REMARK                         _______ _______ _______ _____ _____    ______ ____
ROOT
ATOM      1  CB  GLN A   1      42.071  15.424 -10.310  0.00  0.00    +0.035 C 
ENDROOT
BRANCH   1   2
ATOM      2  CA  GLN A   1      42.771  16.717 -10.730  0.00  0.00    +0.134 C 
BRANCH   2   3
ATOM      3  N   GLN A   1      42.174  17.247 -11.941  0.00  0.00    -0.239 NA
ATOM      4  H   GLN A   1      42.003  16.614 -12.748  0.00  0.00    +0.142 HD
ENDBRANCH   2   3
BRANCH   2   5
ATOM      5  C   GLN A   1      44.227  16.435 -11.060  0.00  0.00    +0.224 C 
ATOM      6  O   GLN A   1      44.511  15.785 -12.069  0.00  0.00    -0.287 OA
ENDBRANCH   2   5
ENDBRANCH   1   2
BRANCH   1   7
ATOM      7  CG  GLN A   1      42.752  14.741  -9.138  0.00  0.00    +0.087 C 
BRANCH   7   8
ATOM      8  CD  GLN A   1      41.956  13.582  -8.578  0.00  0.00    +0.219 C 
ATOM      9  NE2 GLN A   1      42.598  12.771  -7.751  0.00  0.00    -0.329 N 
ATOM     10 HE21 GLN A   1      42.103  11.958  -7.331  0.00  0.00    +0.145 HD
ATOM     11 HE22 GLN A   1      43.597  12.947  -7.521  0.00  0.00    +0.145 HD
ATOM     12  OE1 GLN A   1      40.779  13.419  -8.881  0.00  0.00    -0.275 OA
ENDBRANCH   7   8
ENDBRANCH   1   7
TORSDOF 5
REMARK  Name = ../refined-set-2016/4ksy/4ksy_pocket.pdb
REMARK  278 active torsions:
REMARK  status: ('A' for Active; 'I' for Inactive)
REMARK    1  A    between atoms: _1  and  _3
REMARK    2  A    between atoms: _3  and  _4
REMARK    3  A    between atoms: _6  and  _8
REMARK    4  A    between atoms: _8  and  _9
REMARK    5  A    between atoms: _8  and  _11
REMARK    6  A    between atoms: _11  and  _12
REMARK    7  A    between atoms: _15  and  _17
REMARK    8  A    between atoms: _17  and  _18
REMARK    9  A    between atoms: _21  and  _23
REMARK   10  A    between atoms: _23  and  _24
REMARK   11  A    between atoms: _23  and  _26
REMARK   12  A    between atoms: _26  and  _27
REMARK   13  A    between atoms: _37  and  _39
REMARK   14  A    between atoms: _39  and  _40
REMARK   15  A    between atoms: _39  and  _42
REMARK   16  A    between atoms: _42  and  _43
REMARK   17  A    between atoms: _45  and  _47
REMARK   18  A    between atoms: _47  and  _48
REMARK   19  A    between atoms: _47  and  _50
REMARK   20  A    between atoms: _50  and  _51
REMARK   21  A    between atoms: _56  and  _57
REMARK   22  A    between atoms: _59  and  _61
REMARK   23  A    between atoms: _61  and  _62
REMARK   24  A    between atoms: _61  and  _64
REMARK   25  A    between atoms: _64  and  _65
REMARK   26  A    between atoms: _70  and  _71
REMARK   27  A    between atoms: _73  and  _75
REMARK   28  A    between atoms: _75  and  _76
REMARK   29  A    between atoms: _75  and  _78
REMARK   30  A    between atoms: _78  and  _79
REMARK   31  A    between atoms: _82  and  _84
REMARK   32  A    between atoms: _84  and  _85
REMARK   33  A    between atoms: _87  and  _89
REMARK   34  A    between atoms: _89  and  _90
REMARK   35  A    between atoms: _89  and  _92
REMARK   36  A    between atoms: _92  and  _93
REMARK   37  A    between atoms: _98  and  _99
REMARK   38  A    between atoms: _101  and  _103
REMARK   39  A    between atoms: _103  and  _104
REMARK   40  A    between atoms: _103  and  _106
REMARK   41  A    between atoms: _106  and  _107
REMARK   42  A    between atoms: _110  and  _112
REMARK   43  A    between atoms: _112  and  _113
REMARK   44  A    between atoms: _112  and  _115
REMARK   45  A    between atoms: _115  and  _116
REMARK   46  A    between atoms: _116  and  _117
REMARK   47  A    between atoms: _117  and  _118
REMARK   48  A    between atoms: _127  and  _129
REMARK   49  A    between atoms: _129  and  _130
REMARK   50  A    between atoms: _129  and  _132
REMARK   51  A    between atoms: _132  and  _133
REMARK   52  A    between atoms: _136  and  _138
REMARK   53  A    between atoms: _138  and  _139
REMARK   54  A    between atoms: _138  and  _141
REMARK   55  A    between atoms: _141  and  _142
REMARK   56  A    between atoms: _145  and  _147
REMARK   57  A    between atoms: _147  and  _148
REMARK   58  A    between atoms: _147  and  _150
REMARK   59  A    between atoms: _150  and  _151
REMARK   60  A    between atoms: _154  and  _156
REMARK   61  A    between atoms: _156  and  _157
REMARK   62  A    between atoms: _156  and  _159
REMARK   63  A    between atoms: _159  and  _160
REMARK   64  A    between atoms: _163  and  _165
REMARK   65  A    between atoms: _165  and  _166
REMARK   66  A    between atoms: _165  and  _168
REMARK   67  A    between atoms: _168  and  _169
REMARK   68  A    between atoms: _169  and  _170
REMARK   69  A    between atoms: _175  and  _177
REMARK   70  A    between atoms: _177  and  _178
REMARK   71  A    between atoms: _177  and  _180
REMARK   72  A    between atoms: _180  and  _181
REMARK   73  A    between atoms: _181  and  _182
REMARK   74  A    between atoms: _182  and  _183
REMARK   75  A    between atoms: _192  and  _194
REMARK   76  A    between atoms: _194  and  _195
REMARK   77  A    between atoms: _198  and  _200
REMARK   78  A    between atoms: _200  and  _201
REMARK   79  A    between atoms: _200  and  _203
REMARK   80  A    between atoms: _203  and  _204
REMARK   81  A    between atoms: _207  and  _209
REMARK   82  A    between atoms: _209  and  _210
REMARK   83  A    between atoms: _209  and  _212
REMARK   84  A    between atoms: _212  and  _213
REMARK   85  A    between atoms: _216  and  _218
REMARK   86  A    between atoms: _218  and  _219
REMARK   87  A    between atoms: _218  and  _221
REMARK   88  A    between atoms: _221  and  _222
REMARK   89  A    between atoms: _222  and  _223
REMARK   90  A    between atoms: _223  and  _224
REMARK   91  A    between atoms: _233  and  _235
REMARK   92  A    between atoms: _235  and  _236
REMARK   93  A    between atoms: _235  and  _238
REMARK   94  A    between atoms: _241  and  _243
REMARK   95  A    between atoms: _243  and  _244
REMARK   96  A    between atoms: _243  and  _246
REMARK   97  A    between atoms: _246  and  _247
REMARK   98  A    between atoms: _252  and  _253
REMARK   99  A    between atoms: _255  and  _257
REMARK  100  A    between atoms: _257  and  _258
REMARK  101  A    between atoms: _257  and  _260
REMARK  102  A    between atoms: _260  and  _261
REMARK  103  A    between atoms: _263  and  _265
REMARK  104  A    between atoms: _265  and  _266
REMARK  105  A    between atoms: _265  and  _268
REMARK  106  A    between atoms: _268  and  _269
REMARK  107  A    between atoms: _274  and  _276
REMARK  108  A    between atoms: _276  and  _277
REMARK  109  A    between atoms: _276  and  _279
REMARK  110  A    between atoms: _279  and  _280
REMARK  111  A    between atoms: _280  and  _281
REMARK  112  A    between atoms: _284  and  _286
REMARK  113  A    between atoms: _286  and  _287
REMARK  114  A    between atoms: _286  and  _289
REMARK  115  A    between atoms: _289  and  _290
REMARK  116  A    between atoms: _295  and  _296
REMARK  117  A    between atoms: _298  and  _300
REMARK  118  A    between atoms: _300  and  _301
REMARK  119  A    between atoms: _304  and  _306
REMARK  120  A    between atoms: _306  and  _307
REMARK  121  A    between atoms: _306  and  _309
REMARK  122  A    between atoms: _309  and  _310
REMARK  123  A    between atoms: _314  and  _315
REMARK  124  A    between atoms: _320  and  _322
REMARK  125  A    between atoms: _322  and  _323
REMARK  126  A    between atoms: _322  and  _325
REMARK  127  A    between atoms: _325  and  _326
REMARK  128  A    between atoms: _329  and  _331
REMARK  129  A    between atoms: _331  and  _332
REMARK  130  A    between atoms: _331  and  _334
REMARK  131  A    between atoms: _334  and  _335
REMARK  132  A    between atoms: _335  and  _336
REMARK  133  A    between atoms: _341  and  _343
REMARK  134  A    between atoms: _343  and  _344
REMARK  135  A    between atoms: _343  and  _346
REMARK  136  A    between atoms: _346  and  _347
REMARK  137  A    between atoms: _350  and  _352
REMARK  138  A    between atoms: _352  and  _353
REMARK  139  A    between atoms: _352  and  _355
REMARK  140  A    between atoms: _355  and  _356
REMARK  141  A    between atoms: _362  and  _364
REMARK  142  A    between atoms: _364  and  _365
REMARK  143  A    between atoms: _364  and  _367
REMARK  144  A    between atoms: _367  and  _368
REMARK  145  A    between atoms: _371  and  _373
REMARK  146  A    between atoms: _373  and  _374
REMARK  147  A    between atoms: _377  and  _379
REMARK  148  A    between atoms: _379  and  _380
REMARK  149  A    between atoms: _379  and  _382
REMARK  150  A    between atoms: _382  and  _383
REMARK  151  A    between atoms: _393  and  _395
REMARK  152  A    between atoms: _395  and  _396
REMARK  153  A    between atoms: _395  and  _398
REMARK  154  A    between atoms: _398  and  _399
REMARK  155  A    between atoms: _401  and  _403
REMARK  156  A    between atoms: _403  and  _404
REMARK  157  A    between atoms: _403  and  _406
REMARK  158  A    between atoms: _406  and  _407
REMARK  159  A    between atoms: _412  and  _413
REMARK  160  A    between atoms: _415  and  _417
REMARK  161  A    between atoms: _417  and  _418
REMARK  162  A    between atoms: _417  and  _420
REMARK  163  A    between atoms: _420  and  _421
REMARK  164  A    between atoms: _426  and  _427
REMARK  165  A    between atoms: _429  and  _431
REMARK  166  A    between atoms: _431  and  _432
REMARK  167  A    between atoms: _431  and  _434
REMARK  168  A    between atoms: _434  and  _435
REMARK  169  A    between atoms: _438  and  _440
REMARK  170  A    between atoms: _440  and  _441
REMARK  171  A    between atoms: _443  and  _445
REMARK  172  A    between atoms: _445  and  _446
REMARK  173  A    between atoms: _445  and  _448
REMARK  174  A    between atoms: _448  and  _449
REMARK  175  A    between atoms: _454  and  _455
REMARK  176  A    between atoms: _457  and  _459
REMARK  177  A    between atoms: _459  and  _460
REMARK  178  A    between atoms: _459  and  _462
REMARK  179  A    between atoms: _462  and  _463
REMARK  180  A    between atoms: _466  and  _468
REMARK  181  A    between atoms: _468  and  _469
REMARK  182  A    between atoms: _468  and  _471
REMARK  183  A    between atoms: _471  and  _472
REMARK  184  A    between atoms: _472  and  _473
REMARK  185  A    between atoms: _473  and  _474
REMARK  186  A    between atoms: _483  and  _485
REMARK  187  A    between atoms: _485  and  _486
REMARK  188  A    between atoms: _485  and  _488
REMARK  189  A    between atoms: _488  and  _489
REMARK  190  A    between atoms: _492  and  _494
REMARK  191  A    between atoms: _494  and  _495
REMARK  192  A    between atoms: _494  and  _497
REMARK  193  A    between atoms: _497  and  _498
REMARK  194  A    between atoms: _501  and  _503
REMARK  195  A    between atoms: _503  and  _504
REMARK  196  A    between atoms: _503  and  _506
REMARK  197  A    between atoms: _506  and  _507
REMARK  198  A    between atoms: _507  and  _508
REMARK  199  A    between atoms: _508  and  _509
REMARK  200  A    between atoms: _518  and  _520
REMARK  201  A    between atoms: _520  and  _521
REMARK  202  A    between atoms: _520  and  _523
REMARK  203  A    between atoms: _523  and  _524
REMARK  204  A    between atoms: _524  and  _525
REMARK  205  A    between atoms: _530  and  _532
REMARK  206  A    between atoms: _532  and  _533
REMARK  207  A    between atoms: _532  and  _535
REMARK  208  A    between atoms: _535  and  _536
REMARK  209  A    between atoms: _536  and  _537
REMARK  210  A    between atoms: _537  and  _538
REMARK  211  A    between atoms: _547  and  _549
REMARK  212  A    between atoms: _549  and  _550
REMARK  213  A    between atoms: _553  and  _555
REMARK  214  A    between atoms: _555  and  _556
REMARK  215  A    between atoms: _558  and  _560
REMARK  216  A    between atoms: _560  and  _561
REMARK  217  A    between atoms: _560  and  _563
REMARK  218  A    between atoms: _563  and  _564
REMARK  219  A    between atoms: _567  and  _569
REMARK  220  A    between atoms: _569  and  _570
REMARK  221  A    between atoms: _569  and  _572
REMARK  222  A    between atoms: _572  and  _573
REMARK  223  A    between atoms: _573  and  _574
REMARK  224  A    between atoms: _574  and  _575
REMARK  225  A    between atoms: _584  and  _586
REMARK  226  A    between atoms: _586  and  _587
REMARK  227  A    between atoms: _586  and  _589
REMARK  228  A    between atoms: _592  and  _594
REMARK  229  A    between atoms: _594  and  _595
REMARK  230  A    between atoms: _594  and  _597
REMARK  231  A    between atoms: _597  and  _598
REMARK  232  A    between atoms: _603  and  _604
REMARK  233  A    between atoms: _606  and  _608
REMARK  234  A    between atoms: _608  and  _609
REMARK  235  A    between atoms: _608  and  _611
REMARK  236  A    between atoms: _611  and  _612
REMARK  237  A    between atoms: _614  and  _616
REMARK  238  A    between atoms: _616  and  _617
REMARK  239  A    between atoms: _616  and  _619
REMARK  240  A    between atoms: _619  and  _620
REMARK  241  A    between atoms: _625  and  _627
REMARK  242  A    between atoms: _627  and  _628
REMARK  243  A    between atoms: _627  and  _630
REMARK  244  A    between atoms: _630  and  _631
REMARK  245  A    between atoms: _631  and  _632
REMARK  246  A    between atoms: _635  and  _637
REMARK  247  A    between atoms: _637  and  _638
REMARK  248  A    between atoms: _637  and  _640
REMARK  249  A    between atoms: _640  and  _641
REMARK  250  A    between atoms: _646  and  _647
REMARK  251  A    between atoms: _649  and  _651
REMARK  252  A    between atoms: _651  and  _652
REMARK  253  A    between atoms: _655  and  _657
REMARK  254  A    between atoms: _657  and  _658
REMARK  255  A    between atoms: _657  and  _660
REMARK  256  A    between atoms: _660  and  _661
REMARK  257  A    between atoms: _665  and  _666
REMARK  258  A    between atoms: _671  and  _673
REMARK  259  A    between atoms: _673  and  _674
REMARK  260  A    between atoms: _673  and  _676
REMARK  261  A    between atoms: _676  and  _677
REMARK  262  A    between atoms: _680  and  _682
REMARK  263  A    between atoms: _682  and  _683
REMARK  264  A    between atoms: _682  and  _685
REMARK  265  A    between atoms: _685  and  _686
REMARK  266  A    between atoms: _686  and  _687
REMARK  267  A    between atoms: _692  and  _694
REMARK  268  A    between atoms: _694  and  _695
REMARK  269  A    between atoms: _694  and  _697
REMARK  270  A    between atoms: _697  and  _698
REMARK  271  A    between atoms: _701  and  _703
REMARK  272  A    between atoms: _703  and  _704
REMARK  273  A    between atoms: _703  and  _706
REMARK  274  A    between atoms: _706  and  _707
REMARK  275  A    between atoms: _710  and  _712
REMARK  276  A    between atoms: _712  and  _713
REMARK  277  A    between atoms: _712  and  _715
REMARK  278  A    between atoms: _715  and  _716
REMARK                            x       y       z     vdW  Elec       q    Type
REMARK                         _______ _______ _______ _____ _____    ______ ____
ROOT
ATOM      1  CB  ARG A   1      51.487   9.826 -10.637  0.00  0.00    +0.030 C 
ENDROOT
BRANCH   1   2
ATOM      2  CA  ARG A   1      52.698  10.024  -9.724  0.00  0.00    +0.145 C 
BRANCH   2   3
ATOM      3  C   ARG A   1      53.883   9.349 -10.399  0.00  0.00    +0.238 C 
ATOM      4  N   ALA A   2      54.512   8.409  -9.707  0.00  0.00    -0.298 N 
ATOM      5  H   ALA A   2      54.230   8.241  -8.720  0.00  0.00    +0.150 HD
ATOM      6  O   ARG A   1      54.180   9.670 -11.548  0.00  0.00    -0.274 OA
BRANCH   4   7
ATOM      7  CA  ALA A   2      55.591   7.596 -10.281  0.00  0.00    +0.137 C 
ATOM      8  CB  ALA A   2      55.003   6.602 -11.311  0.00  0.00    +0.030 C 
BRANCH   7   9
ATOM      9  C   ALA A   2      56.660   8.463 -10.925  0.00  0.00    +0.227 C 
ATOM     10  O   ALA A   2      57.172   8.144 -12.007  0.00  0.00    -0.286 OA
ENDBRANCH   7   9
ENDBRANCH   4   7
ENDBRANCH   2   3
BRANCH   2  11
ATOM     11  N   ARG A   1      52.933  11.451  -9.499  0.00  0.00    -0.238 NA
ATOM     12  H   ARG A   1      53.477  11.989 -10.204  0.00  0.00    +0.142 HD
ENDBRANCH   2  11
ENDBRANCH   1   2
BRANCH   1  13
ATOM     13  CG  ARG A   1      50.168  10.319 -10.084  0.00  0.00    +0.045 C 
BRANCH  13  14
ATOM     14  CD  ARG A   1      49.454   9.229  -9.301  0.00  0.00    +0.174 C 
BRANCH  14  15
ATOM     15  NE  ARG A   1      49.176   8.064 -10.135  0.00  0.00    -0.265 N 
ATOM     16  CZ  ARG A   1      49.597   6.830  -9.866  0.00  0.00    +0.342 C 
ATOM     17  NH2 ARG A   1      50.294   6.597  -8.766  0.00  0.00    -0.292 N 
ATOM     18 HH21 ARG A   1      50.512   7.377  -8.114  0.00  0.00    +0.255 HD
ATOM     19 HH22 ARG A   1      50.624   5.634  -8.554  0.00  0.00    +0.255 HD
ATOM     20  NH1 ARG A   1      49.297   5.821 -10.685  0.00  0.00    -0.292 N 
ATOM     21 HH11 ARG A   1      49.629   4.859 -10.469  0.00  0.00    +0.255 HD
ATOM     22 HH12 ARG A   1      48.731   5.996 -11.540  0.00  0.00    +0.255 HD
ATOM     23  HE  ARG A   1      48.612   8.207 -10.997  0.00  0.00    +0.259 HD
ENDBRANCH  14  15
ENDBRANCH  13  14
ENDBRANCH   1  13
TORSDOF 8
REMARK  Name = ../refined-set-2016/4ksy/4ksy_pocket.pdb
REMARK  278 active torsions:
REMARK  status: ('A' for Active; 'I' for Inactive)
REMARK    1  A    between atoms: _1  and  _3
REMARK    2  A    between atoms: _3  and  _4
REMARK    3  A    between atoms: _6  and  _8
REMARK    4  A    between atoms: _8  and  _9
REMARK    5  A    between atoms: _8  and  _11
REMARK    6  A    between atoms: _11  and  _12
REMARK    7  A    between atoms: _15  and  _17
REMARK    8  A    between atoms: _17  and  _18
REMARK    9  A    between atoms: _21  and  _23
REMARK   10  A    between atoms: _23  and  _24
REMARK   11  A    between atoms: _23  and  _26
REMARK   12  A    between atoms: _26  and  _27
REMARK   13  A    between atoms: _37  and  _39
REMARK   14  A    between atoms: _39  and  _40
REMARK   15  A    between atoms: _39  and  _42
REMARK   16  A    between atoms: _42  and  _43
REMARK   17  A    between atoms: _45  and  _47
REMARK   18  A    between atoms: _47  and  _48
REMARK   19  A    between atoms: _47  and  _50
REMARK   20  A    between atoms: _50  and  _51
REMARK   21  A    between atoms: _56  and  _57
REMARK   22  A    between atoms: _59  and  _61
REMARK   23  A    between atoms: _61  and  _62
REMARK   24  A    between atoms: _61  and  _64
REMARK   25  A    between atoms: _64  and  _65
REMARK   26  A    between atoms: _70  and  _71
REMARK   27  A    between atoms: _73  and  _75
REMARK   28  A    between atoms: _75  and  _76
REMARK   29  A    between atoms: _75  and  _78
REMARK   30  A    between atoms: _78  and  _79
REMARK   31  A    between atoms: _82  and  _84
REMARK   32  A    between atoms: _84  and  _85
REMARK   33  A    between atoms: _87  and  _89
REMARK   34  A    between atoms: _89  and  _90
REMARK   35  A    between atoms: _89  and  _92
REMARK   36  A    between atoms: _92  and  _93
REMARK   37  A    between atoms: _98  and  _99
REMARK   38  A    between atoms: _101  and  _103
REMARK   39  A    between atoms: _103  and  _104
REMARK   40  A    between atoms: _103  and  _106
REMARK   41  A    between atoms: _106  and  _107
REMARK   42  A    between atoms: _110  and  _112
REMARK   43  A    between atoms: _112  and  _113
REMARK   44  A    between atoms: _112  and  _115
REMARK   45  A    between atoms: _115  and  _116
REMARK   46  A    between atoms: _116  and  _117
REMARK   47  A    between atoms: _117  and  _118
REMARK   48  A    between atoms: _127  and  _129
REMARK   49  A    between atoms: _129  and  _130
REMARK   50  A    between atoms: _129  and  _132
REMARK   51  A    between atoms: _132  and  _133
REMARK   52  A    between atoms: _136  and  _138
REMARK   53  A    between atoms: _138  and  _139
REMARK   54  A    between atoms: _138  and  _141
REMARK   55  A    between atoms: _141  and  _142
REMARK   56  A    between atoms: _145  and  _147
REMARK   57  A    between atoms: _147  and  _148
REMARK   58  A    between atoms: _147  and  _150
REMARK   59  A    between atoms: _150  and  _151
REMARK   60  A    between atoms: _154  and  _156
REMARK   61  A    between atoms: _156  and  _157
REMARK   62  A    between atoms: _156  and  _159
REMARK   63  A    between atoms: _159  and  _160
REMARK   64  A    between atoms: _163  and  _165
REMARK   65  A    between atoms: _165  and  _166
REMARK   66  A    between atoms: _165  and  _168
REMARK   67  A    between atoms: _168  and  _169
REMARK   68  A    between atoms: _169  and  _170
REMARK   69  A    between atoms: _175  and  _177
REMARK   70  A    between atoms: _177  and  _178
REMARK   71  A    between atoms: _177  and  _180
REMARK   72  A    between atoms: _180  and  _181
REMARK   73  A    between atoms: _181  and  _182
REMARK   74  A    between atoms: _182  and  _183
REMARK   75  A    between atoms: _192  and  _194
REMARK   76  A    between atoms: _194  and  _195
REMARK   77  A    between atoms: _198  and  _200
REMARK   78  A    between atoms: _200  and  _201
REMARK   79  A    between atoms: _200  and  _203
REMARK   80  A    between atoms: _203  and  _204
REMARK   81  A    between atoms: _207  and  _209
REMARK   82  A    between atoms: _209  and  _210
REMARK   83  A    between atoms: _209  and  _212
REMARK   84  A    between atoms: _212  and  _213
REMARK   85  A    between atoms: _216  and  _218
REMARK   86  A    between atoms: _218  and  _219
REMARK   87  A    between atoms: _218  and  _221
REMARK   88  A    between atoms: _221  and  _222
REMARK   89  A    between atoms: _222  and  _223
REMARK   90  A    between atoms: _223  and  _224
REMARK   91  A    between atoms: _233  and  _235
REMARK   92  A    between atoms: _235  and  _236
REMARK   93  A    between atoms: _235  and  _238
REMARK   94  A    between atoms: _241  and  _243
REMARK   95  A    between atoms: _243  and  _244
REMARK   96  A    between atoms: _243  and  _246
REMARK   97  A    between atoms: _246  and  _247
REMARK   98  A    between atoms: _252  and  _253
REMARK   99  A    between atoms: _255  and  _257
REMARK  100  A    between atoms: _257  and  _258
REMARK  101  A    between atoms: _257  and  _260
REMARK  102  A    between atoms: _260  and  _261
REMARK  103  A    between atoms: _263  and  _265
REMARK  104  A    between atoms: _265  and  _266
REMARK  105  A    between atoms: _265  and  _268
REMARK  106  A    between atoms: _268  and  _269
REMARK  107  A    between atoms: _274  and  _276
REMARK  108  A    between atoms: _276  and  _277
REMARK  109  A    between atoms: _276  and  _279
REMARK  110  A    between atoms: _279  and  _280
REMARK  111  A    between atoms: _280  and  _281
REMARK  112  A    between atoms: _284  and  _286
REMARK  113  A    between atoms: _286  and  _287
REMARK  114  A    between atoms: _286  and  _289
REMARK  115  A    between atoms: _289  and  _290
REMARK  116  A    between atoms: _295  and  _296
REMARK  117  A    between atoms: _298  and  _300
REMARK  118  A    between atoms: _300  and  _301
REMARK  119  A    between atoms: _304  and  _306
REMARK  120  A    between atoms: _306  and  _307
REMARK  121  A    between atoms: _306  and  _309
REMARK  122  A    between atoms: _309  and  _310
REMARK  123  A    between atoms: _314  and  _315
REMARK  124  A    between atoms: _320  and  _322
REMARK  125  A    between atoms: _322  and  _323
REMARK  126  A    between atoms: _322  and  _325
REMARK  127  A    between atoms: _325  and  _326
REMARK  128  A    between atoms: _329  and  _331
REMARK  129  A    between atoms: _331  and  _332
REMARK  130  A    between atoms: _331  and  _334
REMARK  131  A    between atoms: _334  and  _335
REMARK  132  A    between atoms: _335  and  _336
REMARK  133  A    between atoms: _341  and  _343
REMARK  134  A    between atoms: _343  and  _344
REMARK  135  A    between atoms: _343  and  _346
REMARK  136  A    between atoms: _346  and  _347
REMARK  137  A    between atoms: _350  and  _352
REMARK  138  A    between atoms: _352  and  _353
REMARK  139  A    between atoms: _352  and  _355
REMARK  140  A    between atoms: _355  and  _356
REMARK  141  A    between atoms: _362  and  _364
REMARK  142  A    between atoms: _364  and  _365
REMARK  143  A    between atoms: _364  and  _367
REMARK  144  A    between atoms: _367  and  _368
REMARK  145  A    between atoms: _371  and  _373
REMARK  146  A    between atoms: _373  and  _374
REMARK  147  A    between atoms: _377  and  _379
REMARK  148  A    between atoms: _379  and  _380
REMARK  149  A    between atoms: _379  and  _382
REMARK  150  A    between atoms: _382  and  _383
REMARK  151  A    between atoms: _393  and  _395
REMARK  152  A    between atoms: _395  and  _396
REMARK  153  A    between atoms: _395  and  _398
REMARK  154  A    between atoms: _398  and  _399
REMARK  155  A    between atoms: _401  and  _403
REMARK  156  A    between atoms: _403  and  _404
REMARK  157  A    between atoms: _403  and  _406
REMARK  158  A    between atoms: _406  and  _407
REMARK  159  A    between atoms: _412  and  _413
REMARK  160  A    between atoms: _415  and  _417
REMARK  161  A    between atoms: _417  and  _418
REMARK  162  A    between atoms: _417  and  _420
REMARK  163  A    between atoms: _420  and  _421
REMARK  164  A    between atoms: _426  and  _427
REMARK  165  A    between atoms: _429  and  _431
REMARK  166  A    between atoms: _431  and  _432
REMARK  167  A    between atoms: _431  and  _434
REMARK  168  A    between atoms: _434  and  _435
REMARK  169  A    between atoms: _438  and  _440
REMARK  170  A    between atoms: _440  and  _441
REMARK  171  A    between atoms: _443  and  _445
REMARK  172  A    between atoms: _445  and  _446
REMARK  173  A    between atoms: _445  and  _448
REMARK  174  A    between atoms: _448  and  _449
REMARK  175  A    between atoms: _454  and  _455
REMARK  176  A    between atoms: _457  and  _459
REMARK  177  A    between atoms: _459  and  _460
REMARK  178  A    between atoms: _459  and  _462
REMARK  179  A    between atoms: _462  and  _463
REMARK  180  A    between atoms: _466  and  _468
REMARK  181  A    between atoms: _468  and  _469
REMARK  182  A    between atoms: _468  and  _471
REMARK  183  A    between atoms: _471  and  _472
REMARK  184  A    between atoms: _472  and  _473
REMARK  185  A    between atoms: _473  and  _474
REMARK  186  A    between atoms: _483  and  _485
REMARK  187  A    between atoms: _485  and  _486
REMARK  188  A    between atoms: _485  and  _488
REMARK  189  A    between atoms: _488  and  _489
REMARK  190  A    between atoms: _492  and  _494
REMARK  191  A    between atoms: _494  and  _495
REMARK  192  A    between atoms: _494  and  _497
REMARK  193  A    between atoms: _497  and  _498
REMARK  194  A    between atoms: _501  and  _503
REMARK  195  A    between atoms: _503  and  _504
REMARK  196  A    between atoms: _503  and  _506
REMARK  197  A    between atoms: _506  and  _507
REMARK  198  A    between atoms: _507  and  _508
REMARK  199  A    between atoms: _508  and  _509
REMARK  200  A    between atoms: _518  and  _520
REMARK  201  A    between atoms: _520  and  _521
REMARK  202  A    between atoms: _520  and  _523
REMARK  203  A    between atoms: _523  and  _524
REMARK  204  A    between atoms: _524  and  _525
REMARK  205  A    between atoms: _530  and  _532
REMARK  206  A    between atoms: _532  and  _533
REMARK  207  A    between atoms: _532  and  _535
REMARK  208  A    between atoms: _535  and  _536
REMARK  209  A    between atoms: _536  and  _537
REMARK  210  A    between atoms: _537  and  _538
REMARK  211  A    between atoms: _547  and  _549
REMARK  212  A    between atoms: _549  and  _550
REMARK  213  A    between atoms: _553  and  _555
REMARK  214  A    between atoms: _555  and  _556
REMARK  215  A    between atoms: _558  and  _560
REMARK  216  A    between atoms: _560  and  _561
REMARK  217  A    between atoms: _560  and  _563
REMARK  218  A    between atoms: _563  and  _564
REMARK  219  A    between atoms: _567  and  _569
REMARK  220  A    between atoms: _569  and  _570
REMARK  221  A    between atoms: _569  and  _572
REMARK  222  A    between atoms: _572  and  _573
REMARK  223  A    between atoms: _573  and  _574
REMARK  224  A    between atoms: _574  and  _575
REMARK  225  A    between atoms: _584  and  _586
REMARK  226  A    between atoms: _586  and  _587
REMARK  227  A    between atoms: _586  and  _589
REMARK  228  A    between atoms: _592  and  _594
REMARK  229  A    between atoms: _594  and  _595
REMARK  230  A    between atoms: _594  and  _597
REMARK  231  A    between atoms: _597  and  _598
REMARK  232  A    between atoms: _603  and  _604
REMARK  233  A    between atoms: _606  and  _608
REMARK  234  A    between atoms: _608  and  _609
REMARK  235  A    between atoms: _608  and  _611
REMARK  236  A    between atoms: _611  and  _612
REMARK  237  A    between atoms: _614  and  _616
REMARK  238  A    between atoms: _616  and  _617
REMARK  239  A    between atoms: _616  and  _619
REMARK  240  A    between atoms: _619  and  _620
REMARK  241  A    between atoms: _625  and  _627
REMARK  242  A    between atoms: _627  and  _628
REMARK  243  A    between atoms: _627  and  _630
REMARK  244  A    between atoms: _630  and  _631
REMARK  245  A    between atoms: _631  and  _632
REMARK  246  A    between atoms: _635  and  _637
REMARK  247  A    between atoms: _637  and  _638
REMARK  248  A    between atoms: _637  and  _640
REMARK  249  A    between atoms: _640  and  _641
REMARK  250  A    between atoms: _646  and  _647
REMARK  251  A    between atoms: _649  and  _651
REMARK  252  A    between atoms: _651  and  _652
REMARK  253  A    between atoms: _655  and  _657
REMARK  254  A    between atoms: _657  and  _658
REMARK  255  A    between atoms: _657  and  _660
REMARK  256  A    between atoms: _660  and  _661
REMARK  257  A    between atoms: _665  and  _666
REMARK  258  A    between atoms: _671  and  _673
REMARK  259  A    between atoms: _673  and  _674
REMARK  260  A    between atoms: _673  and  _676
REMARK  261  A    between atoms: _676  and  _677
REMARK  262  A    between atoms: _680  and  _682
REMARK  263  A    between atoms: _682  and  _683
REMARK  264  A    between atoms: _682  and  _685
REMARK  265  A    between atoms: _685  and  _686
REMARK  266  A    between atoms: _686  and  _687
REMARK  267  A    between atoms: _692  and  _694
REMARK  268  A    between atoms: _694  and  _695
REMARK  269  A    between atoms: _694  and  _697
REMARK  270  A    between atoms: _697  and  _698
REMARK  271  A    between atoms: _701  and  _703
REMARK  272  A    between atoms: _703  and  _704
REMARK  273  A    between atoms: _703  and  _706
REMARK  274  A    between atoms: _706  and  _707
REMARK  275  A    between atoms: _710  and  _712
REMARK  276  A    between atoms: _712  and  _713
REMARK  277  A    between atoms: _712  and  _715
REMARK  278  A    between atoms: _715  and  _716
REMARK                            x       y       z     vdW  Elec       q    Type
REMARK                         _______ _______ _______ _____ _____    ______ ____
ROOT
ATOM      1  CA  ILE A   1      55.726  12.534 -12.861  0.00  0.00    +0.133 C 
ENDROOT
BRANCH   1   2
ATOM      2  N   ILE A   1      56.300  11.496 -12.019  0.00  0.00    -0.239 NA
ATOM      3  H   ILE A   1      55.697  10.724 -11.669  0.00  0.00    +0.142 HD
ENDBRANCH   1   2
BRANCH   1   4
ATOM      4  C   ILE A   1      55.146  13.614 -11.970  0.00  0.00    +0.224 C 
ATOM      5  O   ILE A   1      54.169  13.385 -11.264  0.00  0.00    -0.287 OA
ENDBRANCH   1   4
BRANCH   1   6
ATOM      6  CB  ILE A   1      54.591  12.004 -13.751  0.00  0.00    +0.023 C 
ATOM      7  CG2 ILE A   1      53.990  13.141 -14.581  0.00  0.00    +0.002 C 
BRANCH   6   8
ATOM      8  CG1 ILE A   1      55.090  10.866 -14.650  0.00  0.00    +0.002 C 
ATOM      9  CD1 ILE A   1      56.148  11.293 -15.595  0.00  0.00    +0.000 C 
ENDBRANCH   6   8
ENDBRANCH   1   6
TORSDOF 4
REMARK  Name = ../refined-set-2016/4ksy/4ksy_pocket.pdb
REMARK  278 active torsions:
REMARK  status: ('A' for Active; 'I' for Inactive)
REMARK    1  A    between atoms: _1  and  _3
REMARK    2  A    between atoms: _3  and  _4
REMARK    3  A    between atoms: _6  and  _8
REMARK    4  A    between atoms: _8  and  _9
REMARK    5  A    between atoms: _8  and  _11
REMARK    6  A    between atoms: _11  and  _12
REMARK    7  A    between atoms: _15  and  _17
REMARK    8  A    between atoms: _17  and  _18
REMARK    9  A    between atoms: _21  and  _23
REMARK   10  A    between atoms: _23  and  _24
REMARK   11  A    between atoms: _23  and  _26
REMARK   12  A    between atoms: _26  and  _27
REMARK   13  A    between atoms: _37  and  _39
REMARK   14  A    between atoms: _39  and  _40
REMARK   15  A    between atoms: _39  and  _42
REMARK   16  A    between atoms: _42  and  _43
REMARK   17  A    between atoms: _45  and  _47
REMARK   18  A    between atoms: _47  and  _48
REMARK   19  A    between atoms: _47  and  _50
REMARK   20  A    between atoms: _50  and  _51
REMARK   21  A    between atoms: _56  and  _57
REMARK   22  A    between atoms: _59  and  _61
REMARK   23  A    between atoms: _61  and  _62
REMARK   24  A    between atoms: _61  and  _64
REMARK   25  A    between atoms: _64  and  _65
REMARK   26  A    between atoms: _70  and  _71
REMARK   27  A    between atoms: _73  and  _75
REMARK   28  A    between atoms: _75  and  _76
REMARK   29  A    between atoms: _75  and  _78
REMARK   30  A    between atoms: _78  and  _79
REMARK   31  A    between atoms: _82  and  _84
REMARK   32  A    between atoms: _84  and  _85
REMARK   33  A    between atoms: _87  and  _89
REMARK   34  A    between atoms: _89  and  _90
REMARK   35  A    between atoms: _89  and  _92
REMARK   36  A    between atoms: _92  and  _93
REMARK   37  A    between atoms: _98  and  _99
REMARK   38  A    between atoms: _101  and  _103
REMARK   39  A    between atoms: _103  and  _104
REMARK   40  A    between atoms: _103  and  _106
REMARK   41  A    between atoms: _106  and  _107
REMARK   42  A    between atoms: _110  and  _112
REMARK   43  A    between atoms: _112  and  _113
REMARK   44  A    between atoms: _112  and  _115
REMARK   45  A    between atoms: _115  and  _116
REMARK   46  A    between atoms: _116  and  _117
REMARK   47  A    between atoms: _117  and  _118
REMARK   48  A    between atoms: _127  and  _129
REMARK   49  A    between atoms: _129  and  _130
REMARK   50  A    between atoms: _129  and  _132
REMARK   51  A    between atoms: _132  and  _133
REMARK   52  A    between atoms: _136  and  _138
REMARK   53  A    between atoms: _138  and  _139
REMARK   54  A    between atoms: _138  and  _141
REMARK   55  A    between atoms: _141  and  _142
REMARK   56  A    between atoms: _145  and  _147
REMARK   57  A    between atoms: _147  and  _148
REMARK   58  A    between atoms: _147  and  _150
REMARK   59  A    between atoms: _150  and  _151
REMARK   60  A    between atoms: _154  and  _156
REMARK   61  A    between atoms: _156  and  _157
REMARK   62  A    between atoms: _156  and  _159
REMARK   63  A    between atoms: _159  and  _160
REMARK   64  A    between atoms: _163  and  _165
REMARK   65  A    between atoms: _165  and  _166
REMARK   66  A    between atoms: _165  and  _168
REMARK   67  A    between atoms: _168  and  _169
REMARK   68  A    between atoms: _169  and  _170
REMARK   69  A    between atoms: _175  and  _177
REMARK   70  A    between atoms: _177  and  _178
REMARK   71  A    between atoms: _177  and  _180
REMARK   72  A    between atoms: _180  and  _181
REMARK   73  A    between atoms: _181  and  _182
REMARK   74  A    between atoms: _182  and  _183
REMARK   75  A    between atoms: _192  and  _194
REMARK   76  A    between atoms: _194  and  _195
REMARK   77  A    between atoms: _198  and  _200
REMARK   78  A    between atoms: _200  and  _201
REMARK   79  A    between atoms: _200  and  _203
REMARK   80  A    between atoms: _203  and  _204
REMARK   81  A    between atoms: _207  and  _209
REMARK   82  A    between atoms: _209  and  _210
REMARK   83  A    between atoms: _209  and  _212
REMARK   84  A    between atoms: _212  and  _213
REMARK   85  A    between atoms: _216  and  _218
REMARK   86  A    between atoms: _218  and  _219
REMARK   87  A    between atoms: _218  and  _221
REMARK   88  A    between atoms: _221  and  _222
REMARK   89  A    between atoms: _222  and  _223
REMARK   90  A    between atoms: _223  and  _224
REMARK   91  A    between atoms: _233  and  _235
REMARK   92  A    between atoms: _235  and  _236
REMARK   93  A    between atoms: _235  and  _238
REMARK   94  A    between atoms: _241  and  _243
REMARK   95  A    between atoms: _243  and  _244
REMARK   96  A    between atoms: _243  and  _246
REMARK   97  A    between atoms: _246  and  _247
REMARK   98  A    between atoms: _252  and  _253
REMARK   99  A    between atoms: _255  and  _257
REMARK  100  A    between atoms: _257  and  _258
REMARK  101  A    between atoms: _257  and  _260
REMARK  102  A    between atoms: _260  and  _261
REMARK  103  A    between atoms: _263  and  _265
REMARK  104  A    between atoms: _265  and  _266
REMARK  105  A    between atoms: _265  and  _268
REMARK  106  A    between atoms: _268  and  _269
REMARK  107  A    between atoms: _274  and  _276
REMARK  108  A    between atoms: _276  and  _277
REMARK  109  A    between atoms: _276  and  _279
REMARK  110  A    between atoms: _279  and  _280
REMARK  111  A    between atoms: _280  and  _281
REMARK  112  A    between atoms: _284  and  _286
REMARK  113  A    between atoms: _286  and  _287
REMARK  114  A    between atoms: _286  and  _289
REMARK  115  A    between atoms: _289  and  _290
REMARK  116  A    between atoms: _295  and  _296
REMARK  117  A    between atoms: _298  and  _300
REMARK  118  A    between atoms: _300  and  _301
REMARK  119  A    between atoms: _304  and  _306
REMARK  120  A    between atoms: _306  and  _307
REMARK  121  A    between atoms: _306  and  _309
REMARK  122  A    between atoms: _309  and  _310
REMARK  123  A    between atoms: _314  and  _315
REMARK  124  A    between atoms: _320  and  _322
REMARK  125  A    between atoms: _322  and  _323
REMARK  126  A    between atoms: _322  and  _325
REMARK  127  A    between atoms: _325  and  _326
REMARK  128  A    between atoms: _329  and  _331
REMARK  129  A    between atoms: _331  and  _332
REMARK  130  A    between atoms: _331  and  _334
REMARK  131  A    between atoms: _334  and  _335
REMARK  132  A    between atoms: _335  and  _336
REMARK  133  A    between atoms: _341  and  _343
REMARK  134  A    between atoms: _343  and  _344
REMARK  135  A    between atoms: _343  and  _346
REMARK  136  A    between atoms: _346  and  _347
REMARK  137  A    between atoms: _350  and  _352
REMARK  138  A    between atoms: _352  and  _353
REMARK  139  A    between atoms: _352  and  _355
REMARK  140  A    between atoms: _355  and  _356
REMARK  141  A    between atoms: _362  and  _364
REMARK  142  A    between atoms: _364  and  _365
REMARK  143  A    between atoms: _364  and  _367
REMARK  144  A    between atoms: _367  and  _368
REMARK  145  A    between atoms: _371  and  _373
REMARK  146  A    between atoms: _373  and  _374
REMARK  147  A    between atoms: _377  and  _379
REMARK  148  A    between atoms: _379  and  _380
REMARK  149  A    between atoms: _379  and  _382
REMARK  150  A    between atoms: _382  and  _383
REMARK  151  A    between atoms: _393  and  _395
REMARK  152  A    between atoms: _395  and  _396
REMARK  153  A    between atoms: _395  and  _398
REMARK  154  A    between atoms: _398  and  _399
REMARK  155  A    between atoms: _401  and  _403
REMARK  156  A    between atoms: _403  and  _404
REMARK  157  A    between atoms: _403  and  _406
REMARK  158  A    between atoms: _406  and  _407
REMARK  159  A    between atoms: _412  and  _413
REMARK  160  A    between atoms: _415  and  _417
REMARK  161  A    between atoms: _417  and  _418
REMARK  162  A    between atoms: _417  and  _420
REMARK  163  A    between atoms: _420  and  _421
REMARK  164  A    between atoms: _426  and  _427
REMARK  165  A    between atoms: _429  and  _431
REMARK  166  A    between atoms: _431  and  _432
REMARK  167  A    between atoms: _431  and  _434
REMARK  168  A    between atoms: _434  and  _435
REMARK  169  A    between atoms: _438  and  _440
REMARK  170  A    between atoms: _440  and  _441
REMARK  171  A    between atoms: _443  and  _445
REMARK  172  A    between atoms: _445  and  _446
REMARK  173  A    between atoms: _445  and  _448
REMARK  174  A    between atoms: _448  and  _449
REMARK  175  A    between atoms: _454  and  _455
REMARK  176  A    between atoms: _457  and  _459
REMARK  177  A    between atoms: _459  and  _460
REMARK  178  A    between atoms: _459  and  _462
REMARK  179  A    between atoms: _462  and  _463
REMARK  180  A    between atoms: _466  and  _468
REMARK  181  A    between atoms: _468  and  _469
REMARK  182  A    between atoms: _468  and  _471
REMARK  183  A    between atoms: _471  and  _472
REMARK  184  A    between atoms: _472  and  _473
REMARK  185  A    between atoms: _473  and  _474
REMARK  186  A    between atoms: _483  and  _485
REMARK  187  A    between atoms: _485  and  _486
REMARK  188  A    between atoms: _485  and  _488
REMARK  189  A    between atoms: _488  and  _489
REMARK  190  A    between atoms: _492  and  _494
REMARK  191  A    between atoms: _494  and  _495
REMARK  192  A    between atoms: _494  and  _497
REMARK  193  A    between atoms: _497  and  _498
REMARK  194  A    between atoms: _501  and  _503
REMARK  195  A    between atoms: _503  and  _504
REMARK  196  A    between atoms: _503  and  _506
REMARK  197  A    between atoms: _506  and  _507
REMARK  198  A    between atoms: _507  and  _508
REMARK  199  A    between atoms: _508  and  _509
REMARK  200  A    between atoms: _518  and  _520
REMARK  201  A    between atoms: _520  and  _521
REMARK  202  A    between atoms: _520  and  _523
REMARK  203  A    between atoms: _523  and  _524
REMARK  204  A    between atoms: _524  and  _525
REMARK  205  A    between atoms: _530  and  _532
REMARK  206  A    between atoms: _532  and  _533
REMARK  207  A    between atoms: _532  and  _535
REMARK  208  A    between atoms: _535  and  _536
REMARK  209  A    between atoms: _536  and  _537
REMARK  210  A    between atoms: _537  and  _538
REMARK  211  A    between atoms: _547  and  _549
REMARK  212  A    between atoms: _549  and  _550
REMARK  213  A    between atoms: _553  and  _555
REMARK  214  A    between atoms: _555  and  _556
REMARK  215  A    between atoms: _558  and  _560
REMARK  216  A    between atoms: _560  and  _561
REMARK  217  A    between atoms: _560  and  _563
REMARK  218  A    between atoms: _563  and  _564
REMARK  219  A    between atoms: _567  and  _569
REMARK  220  A    between atoms: _569  and  _570
REMARK  221  A    between atoms: _569  and  _572
REMARK  222  A    between atoms: _572  and  _573
REMARK  223  A    between atoms: _573  and  _574
REMARK  224  A    between atoms: _574  and  _575
REMARK  225  A    between atoms: _584  and  _586
REMARK  226  A    between atoms: _586  and  _587
REMARK  227  A    between atoms: _586  and  _589
REMARK  228  A    between atoms: _592  and  _594
REMARK  229  A    between atoms: _594  and  _595
REMARK  230  A    between atoms: _594  and  _597
REMARK  231  A    between atoms: _597  and  _598
REMARK  232  A    between atoms: _603  and  _604
REMARK  233  A    between atoms: _606  and  _608
REMARK  234  A    between atoms: _608  and  _609
REMARK  235  A    between atoms: _608  and  _611
REMARK  236  A    between atoms: _611  and  _612
REMARK  237  A    between atoms: _614  and  _616
REMARK  238  A    between atoms: _616  and  _617
REMARK  239  A    between atoms: _616  and  _619
REMARK  240  A    between atoms: _619  and  _620
REMARK  241  A    between atoms: _625  and  _627
REMARK  242  A    between atoms: _627  and  _628
REMARK  243  A    between atoms: _627  and  _630
REMARK  244  A    between atoms: _630  and  _631
REMARK  245  A    between atoms: _631  and  _632
REMARK  246  A    between atoms: _635  and  _637
REMARK  247  A    between atoms: _637  and  _638
REMARK  248  A    between atoms: _637  and  _640
REMARK  249  A    between atoms: _640  and  _641
REMARK  250  A    between atoms: _646  and  _647
REMARK  251  A    between atoms: _649  and  _651
REMARK  252  A    between atoms: _651  and  _652
REMARK  253  A    between atoms: _655  and  _657
REMARK  254  A    between atoms: _657  and  _658
REMARK  255  A    between atoms: _657  and  _660
REMARK  256  A    between atoms: _660  and  _661
REMARK  257  A    between atoms: _665  and  _666
REMARK  258  A    between atoms: _671  and  _673
REMARK  259  A    between atoms: _673  and  _674
REMARK  260  A    between atoms: _673  and  _676
REMARK  261  A    between atoms: _676  and  _677
REMARK  262  A    between atoms: _680  and  _682
REMARK  263  A    between atoms: _682  and  _683
REMARK  264  A    between atoms: _682  and  _685
REMARK  265  A    between atoms: _685  and  _686
REMARK  266  A    between atoms: _686  and  _687
REMARK  267  A    between atoms: _692  and  _694
REMARK  268  A    between atoms: _694  and  _695
REMARK  269  A    between atoms: _694  and  _697
REMARK  270  A    between atoms: _697  and  _698
REMARK  271  A    between atoms: _701  and  _703
REMARK  272  A    between atoms: _703  and  _704
REMARK  273  A    between atoms: _703  and  _706
REMARK  274  A    between atoms: _706  and  _707
REMARK  275  A    between atoms: _710  and  _712
REMARK  276  A    between atoms: _712  and  _713
REMARK  277  A    between atoms: _712  and  _715
REMARK  278  A    between atoms: _715  and  _716
REMARK                            x       y       z     vdW  Elec       q    Type
REMARK                         _______ _______ _______ _____ _____    ______ ____
ROOT
ATOM      1  C   VAL A   3      45.733  14.332 -15.181  0.00  0.00    +0.241 C 
ATOM      2  N   TYR A   4      44.675  14.296 -14.380  0.00  0.00    -0.297 N 
ATOM      3  H   TYR A   4      44.674  14.878 -13.518  0.00  0.00    +0.150 HD
ATOM      4  O   VAL A   3      45.873  13.577 -16.145  0.00  0.00    -0.273 OA
ENDROOT
BRANCH   2   5
ATOM      5  CA  TYR A   4      43.508  13.460 -14.676  0.00  0.00    +0.153 C 
BRANCH   5   6
ATOM      6  C   TYR A   4      42.362  14.390 -15.025  0.00  0.00    +0.241 C 
ATOM      7  O   TYR A   4      41.951  15.234 -14.225  0.00  0.00    -0.273 OA
ATOM      8  N   SER A   5      41.866  14.279 -16.242  0.00  0.00    -0.295 N 
ATOM      9  H   SER A   5      42.247  13.572 -16.903  0.00  0.00    +0.150 HD
BRANCH   8  10
ATOM     10  CA  SER A   5      40.782  15.155 -16.649  0.00  0.00    +0.178 C 
BRANCH  10  11
ATOM     11  C   SER A   5      39.572  14.359 -17.114  0.00  0.00    +0.243 C 
ATOM     12  N   ASN A   6      38.399  14.959 -16.981  0.00  0.00    -0.298 N 
ATOM     13  H   ASN A   6      38.356  15.924 -16.596  0.00  0.00    +0.150 HD
ATOM     14  O   SER A   5      39.694  13.210 -17.543  0.00  0.00    -0.273 OA
BRANCH  12  15
ATOM     15  CA  ASN A   6      37.166  14.282 -17.368  0.00  0.00    +0.146 C 
BRANCH  15  16
ATOM     16  C   ASN A   6      36.292  15.286 -18.063  0.00  0.00    +0.227 C 
ATOM     17  O   ASN A   6      36.344  16.479 -17.748  0.00  0.00    -0.286 OA
ENDBRANCH  15  16
BRANCH  15  18
ATOM     18  CB  ASN A   6      36.431  13.751 -16.143  0.00  0.00    +0.112 C 
BRANCH  18  19
ATOM     19  CG  ASN A   6      37.302  12.841 -15.301  0.00  0.00    +0.222 C 
ATOM     20  OD1 ASN A   6      37.992  13.287 -14.388  0.00  0.00    -0.275 OA
ATOM     21  ND2 ASN A   6      37.281  11.561 -15.615  0.00  0.00    -0.329 N 
ATOM     22 HD21 ASN A   6      37.864  10.885 -15.081  0.00  0.00    +0.145 HD
ATOM     23 HD22 ASN A   6      36.681  11.227 -16.396  0.00  0.00    +0.145 HD
ENDBRANCH  18  19
ENDBRANCH  15  18
ENDBRANCH  12  15
ENDBRANCH  10  11
BRANCH  10  24
ATOM     24  CB  SER A   5      41.256  16.146 -17.714  0.00  0.00    +0.166 C 
BRANCH  24  25
ATOM     25  OG  SER A   5      42.164  15.545 -18.610  0.00  0.00    -0.380 OA
ATOM     26  H   SER A   5      42.954  15.220 -18.109  0.00  0.00    +0.211 HD
ENDBRANCH  24  25
ENDBRANCH  10  24
ENDBRANCH   8  10
ENDBRANCH   5   6
BRANCH   5  27
ATOM     27  CB  TYR A   4      43.143  12.587 -13.484  0.00  0.00    +0.055 C 
BRANCH  27  28
ATOM     28  CG  TYR A   4      44.287  11.687 -13.087  0.00  0.00    -0.020 A 
ATOM     29  CD2 TYR A   4      45.261  12.120 -12.198  0.00  0.00    -0.001 A 
ATOM     30  CE2 TYR A   4      46.329  11.295 -11.847  0.00  0.00    +0.036 A 
ATOM     31  CZ  TYR A   4      46.416  10.046 -12.395  0.00  0.00    +0.134 A 
ATOM     32  CE1 TYR A   4      45.458   9.600 -13.289  0.00  0.00    +0.036 A 
ATOM     33  CD1 TYR A   4      44.411  10.425 -13.629  0.00  0.00    -0.001 A 
BRANCH  31  34
ATOM     34  OH  TYR A   4      47.450   9.209 -12.065  0.00  0.00    -0.506 OA
ATOM     35  HH  TYR A   4      48.049   9.664 -11.421  0.00  0.00    +0.292 HD
ENDBRANCH  31  34
ENDBRANCH  27  28
ENDBRANCH   5  27
ENDBRANCH   2   5
BRANCH   1  36
ATOM     36  CA  VAL A   3      46.805  15.375 -14.849  0.00  0.00    +0.149 C 
BRANCH  36  39
ATOM     37  C   ARG A   2      48.758  14.660 -13.572  0.00  0.00    +0.241 C 
ATOM     38  O   ARG A   2      48.195  14.872 -12.500  0.00  0.00    -0.273 OA
ATOM     39  N   VAL A   3      48.146  14.800 -14.747  0.00  0.00    -0.297 N 
ATOM     40  H   VAL A   3      48.634  14.493 -15.613  0.00  0.00    +0.150 HD
BRANCH  37  41
ATOM     41  CA  ARG A   2      50.223  14.223 -13.610  0.00  0.00    +0.149 C 
BRANCH  41  43
ATOM     42  C   ASP A   1      50.959  16.302 -12.645  0.00  0.00    +0.239 C 
ATOM     43  N   ARG A   2      51.000  14.977 -12.623  0.00  0.00    -0.297 N 
ATOM     44  H   ARG A   2      51.576  14.479 -11.914  0.00  0.00    +0.150 HD
ATOM     45  O   ASP A   1      50.460  16.930 -13.579  0.00  0.00    -0.274 OA
BRANCH  42  46
ATOM     46  CA  ASP A   1      51.558  17.041 -11.450  0.00  0.00    +0.156 C 
BRANCH  46  47
ATOM     47  N   ASP A   1      52.864  16.550 -11.028  0.00  0.00    -0.238 NA
ATOM     48  H   ASP A   1      53.007  16.325 -10.023  0.00  0.00    +0.142 HD
ENDBRANCH  46  47
BRANCH  46  49
ATOM     49  CB  ASP A   1      51.617  18.533 -11.756  0.00  0.00    +0.140 C 
BRANCH  49  50
ATOM     50  CG  ASP A   1      51.990  19.353 -10.545  0.00  0.00    +0.367 C 
ATOM     51  OD2 ASP A   1      51.641  18.937  -9.418  0.00  0.00    -0.246 OA
ATOM     52  OD1 ASP A   1      52.637  20.405 -10.724  0.00  0.00    -0.246 OA
ENDBRANCH  49  50
ENDBRANCH  46  49
ENDBRANCH  42  46
ENDBRANCH  41  43
BRANCH  41  53
ATOM     53  CB  ARG A   2      50.335  12.721 -13.367  0.00  0.00    +0.033 C 
BRANCH  53  54
ATOM     54  CG  ARG A   2      49.558  11.897 -14.394  0.00  0.00    +0.045 C 
BRANCH  54  55
ATOM     55  CD  ARG A   2      49.938  10.420 -14.361  0.00  0.00    +0.174 C 
BRANCH  55  56
ATOM     56  NE  ARG A   2      48.938   9.621 -15.090  0.00  0.00    -0.265 N 
ATOM     57  CZ  ARG A   2      48.991   8.302 -15.217  0.00  0.00    +0.342 C 
ATOM     58  NH2 ARG A   2      49.997   7.609 -14.681  0.00  0.00    -0.292 N 
ATOM     59 HH21 ARG A   2      50.748   8.103 -14.158  0.00  0.00    +0.255 HD
ATOM     60 HH22 ARG A   2      50.030   6.575 -14.786  0.00  0.00    +0.255 HD
ATOM     61  NH1 ARG A   2      48.030   7.668 -15.875  0.00  0.00    -0.292 N 
ATOM     62 HH11 ARG A   2      48.065   6.634 -15.978  0.00  0.00    +0.255 HD
ATOM     63 HH12 ARG A   2      47.241   8.205 -16.288  0.00  0.00    +0.255 HD
ATOM     64  HE  ARG A   2      48.141  10.122 -15.532  0.00  0.00    +0.259 HD
ENDBRANCH  55  56
ENDBRANCH  54  55
ENDBRANCH  53  54
ENDBRANCH  41  53
ENDBRANCH  37  41
ENDBRANCH  36  39
BRANCH  36  65
ATOM     65  CB  VAL A   3      46.758  16.450 -15.953  0.00  0.00    +0.027 C 
ATOM     66  CG2 VAL A   3      47.842  17.512 -15.723  0.00  0.00    +0.002 C 
ATOM     67  CG1 VAL A   3      45.359  17.089 -16.022  0.00  0.00    +0.002 C 
ENDBRANCH  36  65
ENDBRANCH   1  36
TORSDOF 26
REMARK  Name = ../refined-set-2016/4ksy/4ksy_pocket.pdb
REMARK  278 active torsions:
REMARK  status: ('A' for Active; 'I' for Inactive)
REMARK    1  A    between atoms: _1  and  _3
REMARK    2  A    between atoms: _3  and  _4
REMARK    3  A    between atoms: _6  and  _8
REMARK    4  A    between atoms: _8  and  _9
REMARK    5  A    between atoms: _8  and  _11
REMARK    6  A    between atoms: _11  and  _12
REMARK    7  A    between atoms: _15  and  _17
REMARK    8  A    between atoms: _17  and  _18
REMARK    9  A    between atoms: _21  and  _23
REMARK   10  A    between atoms: _23  and  _24
REMARK   11  A    between atoms: _23  and  _26
REMARK   12  A    between atoms: _26  and  _27
REMARK   13  A    between atoms: _37  and  _39
REMARK   14  A    between atoms: _39  and  _40
REMARK   15  A    between atoms: _39  and  _42
REMARK   16  A    between atoms: _42  and  _43
REMARK   17  A    between atoms: _45  and  _47
REMARK   18  A    between atoms: _47  and  _48
REMARK   19  A    between atoms: _47  and  _50
REMARK   20  A    between atoms: _50  and  _51
REMARK   21  A    between atoms: _56  and  _57
REMARK   22  A    between atoms: _59  and  _61
REMARK   23  A    between atoms: _61  and  _62
REMARK   24  A    between atoms: _61  and  _64
REMARK   25  A    between atoms: _64  and  _65
REMARK   26  A    between atoms: _70  and  _71
REMARK   27  A    between atoms: _73  and  _75
REMARK   28  A    between atoms: _75  and  _76
REMARK   29  A    between atoms: _75  and  _78
REMARK   30  A    between atoms: _78  and  _79
REMARK   31  A    between atoms: _82  and  _84
REMARK   32  A    between atoms: _84  and  _85
REMARK   33  A    between atoms: _87  and  _89
REMARK   34  A    between atoms: _89  and  _90
REMARK   35  A    between atoms: _89  and  _92
REMARK   36  A    between atoms: _92  and  _93
REMARK   37  A    between atoms: _98  and  _99
REMARK   38  A    between atoms: _101  and  _103
REMARK   39  A    between atoms: _103  and  _104
REMARK   40  A    between atoms: _103  and  _106
REMARK   41  A    between atoms: _106  and  _107
REMARK   42  A    between atoms: _110  and  _112
REMARK   43  A    between atoms: _112  and  _113
REMARK   44  A    between atoms: _112  and  _115
REMARK   45  A    between atoms: _115  and  _116
REMARK   46  A    between atoms: _116  and  _117
REMARK   47  A    between atoms: _117  and  _118
REMARK   48  A    between atoms: _127  and  _129
REMARK   49  A    between atoms: _129  and  _130
REMARK   50  A    between atoms: _129  and  _132
REMARK   51  A    between atoms: _132  and  _133
REMARK   52  A    between atoms: _136  and  _138
REMARK   53  A    between atoms: _138  and  _139
REMARK   54  A    between atoms: _138  and  _141
REMARK   55  A    between atoms: _141  and  _142
REMARK   56  A    between atoms: _145  and  _147
REMARK   57  A    between atoms: _147  and  _148
REMARK   58  A    between atoms: _147  and  _150
REMARK   59  A    between atoms: _150  and  _151
REMARK   60  A    between atoms: _154  and  _156
REMARK   61  A    between atoms: _156  and  _157
REMARK   62  A    between atoms: _156  and  _159
REMARK   63  A    between atoms: _159  and  _160
REMARK   64  A    between atoms: _163  and  _165
REMARK   65  A    between atoms: _165  and  _166
REMARK   66  A    between atoms: _165  and  _168
REMARK   67  A    between atoms: _168  and  _169
REMARK   68  A    between atoms: _169  and  _170
REMARK   69  A    between atoms: _175  and  _177
REMARK   70  A    between atoms: _177  and  _178
REMARK   71  A    between atoms: _177  and  _180
REMARK   72  A    between atoms: _180  and  _181
REMARK   73  A    between atoms: _181  and  _182
REMARK   74  A    between atoms: _182  and  _183
REMARK   75  A    between atoms: _192  and  _194
REMARK   76  A    between atoms: _194  and  _195
REMARK   77  A    between atoms: _198  and  _200
REMARK   78  A    between atoms: _200  and  _201
REMARK   79  A    between atoms: _200  and  _203
REMARK   80  A    between atoms: _203  and  _204
REMARK   81  A    between atoms: _207  and  _209
REMARK   82  A    between atoms: _209  and  _210
REMARK   83  A    between atoms: _209  and  _212
REMARK   84  A    between atoms: _212  and  _213
REMARK   85  A    between atoms: _216  and  _218
REMARK   86  A    between atoms: _218  and  _219
REMARK   87  A    between atoms: _218  and  _221
REMARK   88  A    between atoms: _221  and  _222
REMARK   89  A    between atoms: _222  and  _223
REMARK   90  A    between atoms: _223  and  _224
REMARK   91  A    between atoms: _233  and  _235
REMARK   92  A    between atoms: _235  and  _236
REMARK   93  A    between atoms: _235  and  _238
REMARK   94  A    between atoms: _241  and  _243
REMARK   95  A    between atoms: _243  and  _244
REMARK   96  A    between atoms: _243  and  _246
REMARK   97  A    between atoms: _246  and  _247
REMARK   98  A    between atoms: _252  and  _253
REMARK   99  A    between atoms: _255  and  _257
REMARK  100  A    between atoms: _257  and  _258
REMARK  101  A    between atoms: _257  and  _260
REMARK  102  A    between atoms: _260  and  _261
REMARK  103  A    between atoms: _263  and  _265
REMARK  104  A    between atoms: _265  and  _266
REMARK  105  A    between atoms: _265  and  _268
REMARK  106  A    between atoms: _268  and  _269
REMARK  107  A    between atoms: _274  and  _276
REMARK  108  A    between atoms: _276  and  _277
REMARK  109  A    between atoms: _276  and  _279
REMARK  110  A    between atoms: _279  and  _280
REMARK  111  A    between atoms: _280  and  _281
REMARK  112  A    between atoms: _284  and  _286
REMARK  113  A    between atoms: _286  and  _287
REMARK  114  A    between atoms: _286  and  _289
REMARK  115  A    between atoms: _289  and  _290
REMARK  116  A    between atoms: _295  and  _296
REMARK  117  A    between atoms: _298  and  _300
REMARK  118  A    between atoms: _300  and  _301
REMARK  119  A    between atoms: _304  and  _306
REMARK  120  A    between atoms: _306  and  _307
REMARK  121  A    between atoms: _306  and  _309
REMARK  122  A    between atoms: _309  and  _310
REMARK  123  A    between atoms: _314  and  _315
REMARK  124  A    between atoms: _320  and  _322
REMARK  125  A    between atoms: _322  and  _323
REMARK  126  A    between atoms: _322  and  _325
REMARK  127  A    between atoms: _325  and  _326
REMARK  128  A    between atoms: _329  and  _331
REMARK  129  A    between atoms: _331  and  _332
REMARK  130  A    between atoms: _331  and  _334
REMARK  131  A    between atoms: _334  and  _335
REMARK  132  A    between atoms: _335  and  _336
REMARK  133  A    between atoms: _341  and  _343
REMARK  134  A    between atoms: _343  and  _344
REMARK  135  A    between atoms: _343  and  _346
REMARK  136  A    between atoms: _346  and  _347
REMARK  137  A    between atoms: _350  and  _352
REMARK  138  A    between atoms: _352  and  _353
REMARK  139  A    between atoms: _352  and  _355
REMARK  140  A    between atoms: _355  and  _356
REMARK  141  A    between atoms: _362  and  _364
REMARK  142  A    between atoms: _364  and  _365
REMARK  143  A    between atoms: _364  and  _367
REMARK  144  A    between atoms: _367  and  _368
REMARK  145  A    between atoms: _371  and  _373
REMARK  146  A    between atoms: _373  and  _374
REMARK  147  A    between atoms: _377  and  _379
REMARK  148  A    between atoms: _379  and  _380
REMARK  149  A    between atoms: _379  and  _382
REMARK  150  A    between atoms: _382  and  _383
REMARK  151  A    between atoms: _393  and  _395
REMARK  152  A    between atoms: _395  and  _396
REMARK  153  A    between atoms: _395  and  _398
REMARK  154  A    between atoms: _398  and  _399
REMARK  155  A    between atoms: _401  and  _403
REMARK  156  A    between atoms: _403  and  _404
REMARK  157  A    between atoms: _403  and  _406
REMARK  158  A    between atoms: _406  and  _407
REMARK  159  A    between atoms: _412  and  _413
REMARK  160  A    between atoms: _415  and  _417
REMARK  161  A    between atoms: _417  and  _418
REMARK  162  A    between atoms: _417  and  _420
REMARK  163  A    between atoms: _420  and  _421
REMARK  164  A    between atoms: _426  and  _427
REMARK  165  A    between atoms: _429  and  _431
REMARK  166  A    between atoms: _431  and  _432
REMARK  167  A    between atoms: _431  and  _434
REMARK  168  A    between atoms: _434  and  _435
REMARK  169  A    between atoms: _438  and  _440
REMARK  170  A    between atoms: _440  and  _441
REMARK  171  A    between atoms: _443  and  _445
REMARK  172  A    between atoms: _445  and  _446
REMARK  173  A    between atoms: _445  and  _448
REMARK  174  A    between atoms: _448  and  _449
REMARK  175  A    between atoms: _454  and  _455
REMARK  176  A    between atoms: _457  and  _459
REMARK  177  A    between atoms: _459  and  _460
REMARK  178  A    between atoms: _459  and  _462
REMARK  179  A    between atoms: _462  and  _463
REMARK  180  A    between atoms: _466  and  _468
REMARK  181  A    between atoms: _468  and  _469
REMARK  182  A    between atoms: _468  and  _471
REMARK  183  A    between atoms: _471  and  _472
REMARK  184  A    between atoms: _472  and  _473
REMARK  185  A    between atoms: _473  and  _474
REMARK  186  A    between atoms: _483  and  _485
REMARK  187  A    between atoms: _485  and  _486
REMARK  188  A    between atoms: _485  and  _488
REMARK  189  A    between atoms: _488  and  _489
REMARK  190  A    between atoms: _492  and  _494
REMARK  191  A    between atoms: _494  and  _495
REMARK  192  A    between atoms: _494  and  _497
REMARK  193  A    between atoms: _497  and  _498
REMARK  194  A    between atoms: _501  and  _503
REMARK  195  A    between atoms: _503  and  _504
REMARK  196  A    between atoms: _503  and  _506
REMARK  197  A    between atoms: _506  and  _507
REMARK  198  A    between atoms: _507  and  _508
REMARK  199  A    between atoms: _508  and  _509
REMARK  200  A    between atoms: _518  and  _520
REMARK  201  A    between atoms: _520  and  _521
REMARK  202  A    between atoms: _520  and  _523
REMARK  203  A    between atoms: _523  and  _524
REMARK  204  A    between atoms: _524  and  _525
REMARK  205  A    between atoms: _530  and  _532
REMARK  206  A    between atoms: _532  and  _533
REMARK  207  A    between atoms: _532  and  _535
REMARK  208  A    between atoms: _535  and  _536
REMARK  209  A    between atoms: _536  and  _537
REMARK  210  A    between atoms: _537  and  _538
REMARK  211  A    between atoms: _547  and  _549
REMARK  212  A    between atoms: _549  and  _550
REMARK  213  A    between atoms: _553  and  _555
REMARK  214  A    between atoms: _555  and  _556
REMARK  215  A    between atoms: _558  and  _560
REMARK  216  A    between atoms: _560  and  _561
REMARK  217  A    between atoms: _560  and  _563
REMARK  218  A    between atoms: _563  and  _564
REMARK  219  A    between atoms: _567  and  _569
REMARK  220  A    between atoms: _569  and  _570
REMARK  221  A    between atoms: _569  and  _572
REMARK  222  A    between atoms: _572  and  _573
REMARK  223  A    between atoms: _573  and  _574
REMARK  224  A    between atoms: _574  and  _575
REMARK  225  A    between atoms: _584  and  _586
REMARK  226  A    between atoms: _586  and  _587
REMARK  227  A    between atoms: _586  and  _589
REMARK  228  A    between atoms: _592  and  _594
REMARK  229  A    between atoms: _594  and  _595
REMARK  230  A    between atoms: _594  and  _597
REMARK  231  A    between atoms: _597  and  _598
REMARK  232  A    between atoms: _603  and  _604
REMARK  233  A    between atoms: _606  and  _608
REMARK  234  A    between atoms: _608  and  _609
REMARK  235  A    between atoms: _608  and  _611
REMARK  236  A    between atoms: _611  and  _612
REMARK  237  A    between atoms: _614  and  _616
REMARK  238  A    between atoms: _616  and  _617
REMARK  239  A    between atoms: _616  and  _619
REMARK  240  A    between atoms: _619  and  _620
REMARK  241  A    between atoms: _625  and  _627
REMARK  242  A    between atoms: _627  and  _628
REMARK  243  A    between atoms: _627  and  _630
REMARK  244  A    between atoms: _630  and  _631
REMARK  245  A    between atoms: _631  and  _632
REMARK  246  A    between atoms: _635  and  _637
REMARK  247  A    between atoms: _637  and  _638
REMARK  248  A    between atoms: _637  and  _640
REMARK  249  A    between atoms: _640  and  _641
REMARK  250  A    between atoms: _646  and  _647
REMARK  251  A    between atoms: _649  and  _651
REMARK  252  A    between atoms: _651  and  _652
REMARK  253  A    between atoms: _655  and  _657
REMARK  254  A    between atoms: _657  and  _658
REMARK  255  A    between atoms: _657  and  _660
REMARK  256  A    between atoms: _660  and  _661
REMARK  257  A    between atoms: _665  and  _666
REMARK  258  A    between atoms: _671  and  _673
REMARK  259  A    between atoms: _673  and  _674
REMARK  260  A    between atoms: _673  and  _676
REMARK  261  A    between atoms: _676  and  _677
REMARK  262  A    between atoms: _680  and  _682
REMARK  263  A    between atoms: _682  and  _683
REMARK  264  A    between atoms: _682  and  _685
REMARK  265  A    between atoms: _685  and  _686
REMARK  266  A    between atoms: _686  and  _687
REMARK  267  A    between atoms: _692  and  _694
REMARK  268  A    between atoms: _694  and  _695
REMARK  269  A    between atoms: _694  and  _697
REMARK  270  A    between atoms: _697  and  _698
REMARK  271  A    between atoms: _701  and  _703
REMARK  272  A    between atoms: _703  and  _704
REMARK  273  A    between atoms: _703  and  _706
REMARK  274  A    between atoms: _706  and  _707
REMARK  275  A    between atoms: _710  and  _712
REMARK  276  A    between atoms: _712  and  _713
REMARK  277  A    between atoms: _712  and  _715
REMARK  278  A    between atoms: _715  and  _716
REMARK                            x       y       z     vdW  Elec       q    Type
REMARK                         _______ _______ _______ _____ _____    ______ ____
ROOT
ATOM      1  C   THR A   4      41.057   1.638 -22.106  0.00  0.00    +0.246 C 
ATOM      2  N   PRO A   5      41.026   0.780 -21.070  0.00  0.00    -0.272 N 
ATOM      3  CD  PRO A   5      40.623   0.936 -19.659  0.00  0.00    +0.094 C 
ATOM      4  CG  PRO A   5      41.344  -0.168 -18.963  0.00  0.00    +0.024 C 
ATOM      5  CB  PRO A   5      41.430  -1.261 -19.963  0.00  0.00    +0.031 C 
ATOM      6  CA  PRO A   5      41.659  -0.532 -21.295  0.00  0.00    +0.152 C 
ATOM      7  O   THR A   4      41.617   1.346 -23.160  0.00  0.00    -0.273 OA
ENDROOT
BRANCH   6   8
ATOM      8  C   PRO A   5      41.003  -1.351 -22.415  0.00  0.00    +0.241 C 
ATOM      9  N   LEU A   6      39.768  -1.029 -22.776  0.00  0.00    -0.297 N 
ATOM     10  H   LEU A   6      39.247  -0.277 -22.281  0.00  0.00    +0.150 HD
ATOM     11  O   PRO A   5      41.619  -2.272 -22.940  0.00  0.00    -0.273 OA
BRANCH   9  12
ATOM     12  CA  LEU A   6      39.159  -1.755 -23.883  0.00  0.00    +0.149 C 
BRANCH  12  13
ATOM     13  C   LEU A   6      39.942  -1.444 -25.158  0.00  0.00    +0.241 C 
ATOM     14  N   GLN A   7      40.642  -0.313 -25.188  0.00  0.00    -0.297 N 
ATOM     15  H   GLN A   7      40.582   0.355 -24.394  0.00  0.00    +0.150 HD
ATOM     16  O   LEU A   6      39.968  -2.244 -26.076  0.00  0.00    -0.273 OA
BRANCH  14  17
ATOM     17  CA  GLN A   7      41.499  -0.006 -26.339  0.00  0.00    +0.149 C 
BRANCH  17  18
ATOM     18  C   GLN A   7      42.703  -0.925 -26.440  0.00  0.00    +0.241 C 
ATOM     19  N   THR A   8      43.219  -1.324 -25.294  0.00  0.00    -0.296 N 
ATOM     20  H   THR A   8      42.839  -0.945 -24.403  0.00  0.00    +0.150 HD
ATOM     21  O   GLN A   7      43.168  -1.259 -27.539  0.00  0.00    -0.273 OA
BRANCH  19  22
ATOM     22  CA  THR A   8      44.304  -2.279 -25.255  0.00  0.00    +0.164 C 
BRANCH  22  23
ATOM     23  CB  THR A   8      44.945  -2.346 -23.846  0.00  0.00    +0.136 C 
ATOM     24  CG2 THR A   8      45.905  -3.538 -23.732  0.00  0.00    +0.034 C 
BRANCH  23  25
ATOM     25  OG1 THR A   8      45.695  -1.144 -23.626  0.00  0.00    -0.382 OA
ATOM     26  HG1 THR A   8      45.089  -0.363 -23.684  0.00  0.00    +0.210 HD
ENDBRANCH  23  25
ENDBRANCH  22  23
BRANCH  22  27
ATOM     27  C   THR A   8      43.853  -3.647 -25.736  0.00  0.00    +0.229 C 
ATOM     28  O   THR A   8      44.577  -4.301 -26.482  0.00  0.00    -0.286 OA
ENDBRANCH  22  27
ENDBRANCH  19  22
ENDBRANCH  17  18
BRANCH  17  29
ATOM     29  CB  GLN A   7      41.948   1.451 -26.315  0.00  0.00    +0.039 C 
BRANCH  29  30
ATOM     30  CG  GLN A   7      40.889   2.404 -26.855  0.00  0.00    +0.087 C 
BRANCH  30  31
ATOM     31  CD  GLN A   7      41.388   3.847 -26.956  0.00  0.00    +0.219 C 
ATOM     32  OE1 GLN A   7      42.245   4.274 -26.191  0.00  0.00    -0.275 OA
ATOM     33  NE2 GLN A   7      40.825   4.599 -27.883  0.00  0.00    -0.329 N 
ATOM     34 HE21 GLN A   7      41.105   5.595 -27.985  0.00  0.00    +0.145 HD
ATOM     35 HE22 GLN A   7      40.101   4.195 -28.511  0.00  0.00    +0.145 HD
ENDBRANCH  30  31
ENDBRANCH  29  30
ENDBRANCH  17  29
ENDBRANCH  14  17
ENDBRANCH  12  13
BRANCH  12  36
ATOM     36  CB  LEU A   6      37.679  -1.405 -24.033  0.00  0.00    +0.029 C 
BRANCH  36  37
ATOM     37  CG  LEU A   6      36.810  -1.865 -22.848  0.00  0.00    +0.002 C 
ATOM     38  CD2 LEU A   6      36.848  -3.374 -22.691  0.00  0.00    +0.000 C 
ATOM     39  CD1 LEU A   6      35.386  -1.395 -23.052  0.00  0.00    +0.000 C 
ENDBRANCH  36  37
ENDBRANCH  12  36
ENDBRANCH   9  12
ENDBRANCH   6   8
BRANCH   1  40
ATOM     40  CA  THR A   4      40.356   3.023 -21.967  0.00  0.00    +0.176 C 
BRANCH  40  42
ATOM     41  C   ALA A   3      38.124   2.333 -21.292  0.00  0.00    +0.241 C 
ATOM     42  N   THR A   4      39.191   3.098 -21.085  0.00  0.00    -0.295 N 
ATOM     43  H   THR A   4      39.198   3.760 -20.283  0.00  0.00    +0.150 HD
ATOM     44  O   ALA A   3      38.078   1.488 -22.179  0.00  0.00    -0.273 OA
BRANCH  41  45
ATOM     45  CA  ALA A   3      36.935   2.542 -20.350  0.00  0.00    +0.149 C 
ATOM     46  CB  ALA A   3      36.450   1.195 -19.804  0.00  0.00    +0.031 C 
BRANCH  45  49
ATOM     47  C   TYR A   2      35.964   4.481 -21.442  0.00  0.00    +0.241 C 
ATOM     48  O   TYR A   2      36.872   5.209 -21.029  0.00  0.00    -0.273 OA
ATOM     49  N   ALA A   3      35.869   3.197 -21.117  0.00  0.00    -0.297 N 
ATOM     50  H   ALA A   3      35.033   2.651 -21.408  0.00  0.00    +0.150 HD
BRANCH  47  51
ATOM     51  CA  TYR A   2      34.910   5.025 -22.383  0.00  0.00    +0.153 C 
BRANCH  51  54
ATOM     52  C   GLU A   1      33.855   6.881 -21.228  0.00  0.00    +0.238 C 
ATOM     53  O   GLU A   1      33.099   6.135 -20.605  0.00  0.00    -0.274 OA
ATOM     54  N   TYR A   2      34.710   6.447 -22.155  0.00  0.00    -0.297 N 
ATOM     55  H   TYR A   2      35.242   7.136 -22.724  0.00  0.00    +0.150 HD
BRANCH  52  56
ATOM     56  CA  GLU A   1      33.866   8.368 -20.952  0.00  0.00    +0.145 C 
BRANCH  56  57
ATOM     57  N   GLU A   1      32.677   8.766 -20.202  0.00  0.00    -0.238 NA
ATOM     58  H   GLU A   1      32.115   8.041 -19.712  0.00  0.00    +0.142 HD
ENDBRANCH  56  57
BRANCH  56  59
ATOM     59  CB  GLU A   1      35.139   8.724 -20.171  0.00  0.00    +0.038 C 
BRANCH  59  60
ATOM     60  CG  GLU A   1      35.245   8.070 -18.801  0.00  0.00    +0.116 C 
BRANCH  60  61
ATOM     61  CD  GLU A   1      36.301   8.738 -17.939  0.00  0.00    +0.365 C 
ATOM     62  OE2 GLU A   1      37.247   8.041 -17.508  0.00  0.00    -0.246 OA
ATOM     63  OE1 GLU A   1      36.191   9.965 -17.704  0.00  0.00    -0.246 OA
ENDBRANCH  60  61
ENDBRANCH  59  60
ENDBRANCH  56  59
ENDBRANCH  52  56
ENDBRANCH  51  54
BRANCH  51  64
ATOM     64  CB  TYR A   2      35.410   4.784 -23.800  0.00  0.00    +0.055 C 
BRANCH  64  65
ATOM     65  CG  TYR A   2      34.343   4.903 -24.857  0.00  0.00    -0.020 A 
ATOM     66  CD2 TYR A   2      33.426   3.883 -25.074  0.00  0.00    -0.001 A 
ATOM     67  CE2 TYR A   2      32.445   3.999 -26.085  0.00  0.00    +0.036 A 
ATOM     68  CZ  TYR A   2      32.422   5.135 -26.865  0.00  0.00    +0.134 A 
ATOM     69  CE1 TYR A   2      33.336   6.139 -26.663  0.00  0.00    +0.036 A 
ATOM     70  CD1 TYR A   2      34.288   6.020 -25.668  0.00  0.00    -0.001 A 
BRANCH  68  71
ATOM     71  OH  TYR A   2      31.496   5.294 -27.874  0.00  0.00    -0.506 OA
ATOM     72  HH  TYR A   2      30.905   4.500 -27.906  0.00  0.00    +0.292 HD
ENDBRANCH  68  71
ENDBRANCH  64  65
ENDBRANCH  51  64
ENDBRANCH  47  51
ENDBRANCH  45  49
ENDBRANCH  41  45
ENDBRANCH  40  42
BRANCH  40  73
ATOM     73  CB  THR A   4      41.391   4.149 -21.643  0.00  0.00    +0.137 C 
ATOM     74  CG2 THR A   4      42.306   4.384 -22.834  0.00  0.00    +0.034 C 
BRANCH  73  75
ATOM     75  OG1 THR A   4      40.695   5.366 -21.339  0.00  0.00    -0.382 OA
ATOM     76  HG1 THR A   4      41.352   6.078 -21.134  0.00  0.00    +0.210 HD
ENDBRANCH  73  75
ENDBRANCH  40  73
ENDBRANCH   1  40
TORSDOF 30
REMARK  Name = ../refined-set-2016/4ksy/4ksy_pocket.pdb
REMARK  278 active torsions:
REMARK  status: ('A' for Active; 'I' for Inactive)
REMARK    1  A    between atoms: _1  and  _3
REMARK    2  A    between atoms: _3  and  _4
REMARK    3  A    between atoms: _6  and  _8
REMARK    4  A    between atoms: _8  and  _9
REMARK    5  A    between atoms: _8  and  _11
REMARK    6  A    between atoms: _11  and  _12
REMARK    7  A    between atoms: _15  and  _17
REMARK    8  A    between atoms: _17  and  _18
REMARK    9  A    between atoms: _21  and  _23
REMARK   10  A    between atoms: _23  and  _24
REMARK   11  A    between atoms: _23  and  _26
REMARK   12  A    between atoms: _26  and  _27
REMARK   13  A    between atoms: _37  and  _39
REMARK   14  A    between atoms: _39  and  _40
REMARK   15  A    between atoms: _39  and  _42
REMARK   16  A    between atoms: _42  and  _43
REMARK   17  A    between atoms: _45  and  _47
REMARK   18  A    between atoms: _47  and  _48
REMARK   19  A    between atoms: _47  and  _50
REMARK   20  A    between atoms: _50  and  _51
REMARK   21  A    between atoms: _56  and  _57
REMARK   22  A    between atoms: _59  and  _61
REMARK   23  A    between atoms: _61  and  _62
REMARK   24  A    between atoms: _61  and  _64
REMARK   25  A    between atoms: _64  and  _65
REMARK   26  A    between atoms: _70  and  _71
REMARK   27  A    between atoms: _73  and  _75
REMARK   28  A    between atoms: _75  and  _76
REMARK   29  A    between atoms: _75  and  _78
REMARK   30  A    between atoms: _78  and  _79
REMARK   31  A    between atoms: _82  and  _84
REMARK   32  A    between atoms: _84  and  _85
REMARK   33  A    between atoms: _87  and  _89
REMARK   34  A    between atoms: _89  and  _90
REMARK   35  A    between atoms: _89  and  _92
REMARK   36  A    between atoms: _92  and  _93
REMARK   37  A    between atoms: _98  and  _99
REMARK   38  A    between atoms: _101  and  _103
REMARK   39  A    between atoms: _103  and  _104
REMARK   40  A    between atoms: _103  and  _106
REMARK   41  A    between atoms: _106  and  _107
REMARK   42  A    between atoms: _110  and  _112
REMARK   43  A    between atoms: _112  and  _113
REMARK   44  A    between atoms: _112  and  _115
REMARK   45  A    between atoms: _115  and  _116
REMARK   46  A    between atoms: _116  and  _117
REMARK   47  A    between atoms: _117  and  _118
REMARK   48  A    between atoms: _127  and  _129
REMARK   49  A    between atoms: _129  and  _130
REMARK   50  A    between atoms: _129  and  _132
REMARK   51  A    between atoms: _132  and  _133
REMARK   52  A    between atoms: _136  and  _138
REMARK   53  A    between atoms: _138  and  _139
REMARK   54  A    between atoms: _138  and  _141
REMARK   55  A    between atoms: _141  and  _142
REMARK   56  A    between atoms: _145  and  _147
REMARK   57  A    between atoms: _147  and  _148
REMARK   58  A    between atoms: _147  and  _150
REMARK   59  A    between atoms: _150  and  _151
REMARK   60  A    between atoms: _154  and  _156
REMARK   61  A    between atoms: _156  and  _157
REMARK   62  A    between atoms: _156  and  _159
REMARK   63  A    between atoms: _159  and  _160
REMARK   64  A    between atoms: _163  and  _165
REMARK   65  A    between atoms: _165  and  _166
REMARK   66  A    between atoms: _165  and  _168
REMARK   67  A    between atoms: _168  and  _169
REMARK   68  A    between atoms: _169  and  _170
REMARK   69  A    between atoms: _175  and  _177
REMARK   70  A    between atoms: _177  and  _178
REMARK   71  A    between atoms: _177  and  _180
REMARK   72  A    between atoms: _180  and  _181
REMARK   73  A    between atoms: _181  and  _182
REMARK   74  A    between atoms: _182  and  _183
REMARK   75  A    between atoms: _192  and  _194
REMARK   76  A    between atoms: _194  and  _195
REMARK   77  A    between atoms: _198  and  _200
REMARK   78  A    between atoms: _200  and  _201
REMARK   79  A    between atoms: _200  and  _203
REMARK   80  A    between atoms: _203  and  _204
REMARK   81  A    between atoms: _207  and  _209
REMARK   82  A    between atoms: _209  and  _210
REMARK   83  A    between atoms: _209  and  _212
REMARK   84  A    between atoms: _212  and  _213
REMARK   85  A    between atoms: _216  and  _218
REMARK   86  A    between atoms: _218  and  _219
REMARK   87  A    between atoms: _218  and  _221
REMARK   88  A    between atoms: _221  and  _222
REMARK   89  A    between atoms: _222  and  _223
REMARK   90  A    between atoms: _223  and  _224
REMARK   91  A    between atoms: _233  and  _235
REMARK   92  A    between atoms: _235  and  _236
REMARK   93  A    between atoms: _235  and  _238
REMARK   94  A    between atoms: _241  and  _243
REMARK   95  A    between atoms: _243  and  _244
REMARK   96  A    between atoms: _243  and  _246
REMARK   97  A    between atoms: _246  and  _247
REMARK   98  A    between atoms: _252  and  _253
REMARK   99  A    between atoms: _255  and  _257
REMARK  100  A    between atoms: _257  and  _258
REMARK  101  A    between atoms: _257  and  _260
REMARK  102  A    between atoms: _260  and  _261
REMARK  103  A    between atoms: _263  and  _265
REMARK  104  A    between atoms: _265  and  _266
REMARK  105  A    between atoms: _265  and  _268
REMARK  106  A    between atoms: _268  and  _269
REMARK  107  A    between atoms: _274  and  _276
REMARK  108  A    between atoms: _276  and  _277
REMARK  109  A    between atoms: _276  and  _279
REMARK  110  A    between atoms: _279  and  _280
REMARK  111  A    between atoms: _280  and  _281
REMARK  112  A    between atoms: _284  and  _286
REMARK  113  A    between atoms: _286  and  _287
REMARK  114  A    between atoms: _286  and  _289
REMARK  115  A    between atoms: _289  and  _290
REMARK  116  A    between atoms: _295  and  _296
REMARK  117  A    between atoms: _298  and  _300
REMARK  118  A    between atoms: _300  and  _301
REMARK  119  A    between atoms: _304  and  _306
REMARK  120  A    between atoms: _306  and  _307
REMARK  121  A    between atoms: _306  and  _309
REMARK  122  A    between atoms: _309  and  _310
REMARK  123  A    between atoms: _314  and  _315
REMARK  124  A    between atoms: _320  and  _322
REMARK  125  A    between atoms: _322  and  _323
REMARK  126  A    between atoms: _322  and  _325
REMARK  127  A    between atoms: _325  and  _326
REMARK  128  A    between atoms: _329  and  _331
REMARK  129  A    between atoms: _331  and  _332
REMARK  130  A    between atoms: _331  and  _334
REMARK  131  A    between atoms: _334  and  _335
REMARK  132  A    between atoms: _335  and  _336
REMARK  133  A    between atoms: _341  and  _343
REMARK  134  A    between atoms: _343  and  _344
REMARK  135  A    between atoms: _343  and  _346
REMARK  136  A    between atoms: _346  and  _347
REMARK  137  A    between atoms: _350  and  _352
REMARK  138  A    between atoms: _352  and  _353
REMARK  139  A    between atoms: _352  and  _355
REMARK  140  A    between atoms: _355  and  _356
REMARK  141  A    between atoms: _362  and  _364
REMARK  142  A    between atoms: _364  and  _365
REMARK  143  A    between atoms: _364  and  _367
REMARK  144  A    between atoms: _367  and  _368
REMARK  145  A    between atoms: _371  and  _373
REMARK  146  A    between atoms: _373  and  _374
REMARK  147  A    between atoms: _377  and  _379
REMARK  148  A    between atoms: _379  and  _380
REMARK  149  A    between atoms: _379  and  _382
REMARK  150  A    between atoms: _382  and  _383
REMARK  151  A    between atoms: _393  and  _395
REMARK  152  A    between atoms: _395  and  _396
REMARK  153  A    between atoms: _395  and  _398
REMARK  154  A    between atoms: _398  and  _399
REMARK  155  A    between atoms: _401  and  _403
REMARK  156  A    between atoms: _403  and  _404
REMARK  157  A    between atoms: _403  and  _406
REMARK  158  A    between atoms: _406  and  _407
REMARK  159  A    between atoms: _412  and  _413
REMARK  160  A    between atoms: _415  and  _417
REMARK  161  A    between atoms: _417  and  _418
REMARK  162  A    between atoms: _417  and  _420
REMARK  163  A    between atoms: _420  and  _421
REMARK  164  A    between atoms: _426  and  _427
REMARK  165  A    between atoms: _429  and  _431
REMARK  166  A    between atoms: _431  and  _432
REMARK  167  A    between atoms: _431  and  _434
REMARK  168  A    between atoms: _434  and  _435
REMARK  169  A    between atoms: _438  and  _440
REMARK  170  A    between atoms: _440  and  _441
REMARK  171  A    between atoms: _443  and  _445
REMARK  172  A    between atoms: _445  and  _446
REMARK  173  A    between atoms: _445  and  _448
REMARK  174  A    between atoms: _448  and  _449
REMARK  175  A    between atoms: _454  and  _455
REMARK  176  A    between atoms: _457  and  _459
REMARK  177  A    between atoms: _459  and  _460
REMARK  178  A    between atoms: _459  and  _462
REMARK  179  A    between atoms: _462  and  _463
REMARK  180  A    between atoms: _466  and  _468
REMARK  181  A    between atoms: _468  and  _469
REMARK  182  A    between atoms: _468  and  _471
REMARK  183  A    between atoms: _471  and  _472
REMARK  184  A    between atoms: _472  and  _473
REMARK  185  A    between atoms: _473  and  _474
REMARK  186  A    between atoms: _483  and  _485
REMARK  187  A    between atoms: _485  and  _486
REMARK  188  A    between atoms: _485  and  _488
REMARK  189  A    between atoms: _488  and  _489
REMARK  190  A    between atoms: _492  and  _494
REMARK  191  A    between atoms: _494  and  _495
REMARK  192  A    between atoms: _494  and  _497
REMARK  193  A    between atoms: _497  and  _498
REMARK  194  A    between atoms: _501  and  _503
REMARK  195  A    between atoms: _503  and  _504
REMARK  196  A    between atoms: _503  and  _506
REMARK  197  A    between atoms: _506  and  _507
REMARK  198  A    between atoms: _507  and  _508
REMARK  199  A    between atoms: _508  and  _509
REMARK  200  A    between atoms: _518  and  _520
REMARK  201  A    between atoms: _520  and  _521
REMARK  202  A    between atoms: _520  and  _523
REMARK  203  A    between atoms: _523  and  _524
REMARK  204  A    between atoms: _524  and  _525
REMARK  205  A    between atoms: _530  and  _532
REMARK  206  A    between atoms: _532  and  _533
REMARK  207  A    between atoms: _532  and  _535
REMARK  208  A    between atoms: _535  and  _536
REMARK  209  A    between atoms: _536  and  _537
REMARK  210  A    between atoms: _537  and  _538
REMARK  211  A    between atoms: _547  and  _549
REMARK  212  A    between atoms: _549  and  _550
REMARK  213  A    between atoms: _553  and  _555
REMARK  214  A    between atoms: _555  and  _556
REMARK  215  A    between atoms: _558  and  _560
REMARK  216  A    between atoms: _560  and  _561
REMARK  217  A    between atoms: _560  and  _563
REMARK  218  A    between atoms: _563  and  _564
REMARK  219  A    between atoms: _567  and  _569
REMARK  220  A    between atoms: _569  and  _570
REMARK  221  A    between atoms: _569  and  _572
REMARK  222  A    between atoms: _572  and  _573
REMARK  223  A    between atoms: _573  and  _574
REMARK  224  A    between atoms: _574  and  _575
REMARK  225  A    between atoms: _584  and  _586
REMARK  226  A    between atoms: _586  and  _587
REMARK  227  A    between atoms: _586  and  _589
REMARK  228  A    between atoms: _592  and  _594
REMARK  229  A    between atoms: _594  and  _595
REMARK  230  A    between atoms: _594  and  _597
REMARK  231  A    between atoms: _597  and  _598
REMARK  232  A    between atoms: _603  and  _604
REMARK  233  A    between atoms: _606  and  _608
REMARK  234  A    between atoms: _608  and  _609
REMARK  235  A    between atoms: _608  and  _611
REMARK  236  A    between atoms: _611  and  _612
REMARK  237  A    between atoms: _614  and  _616
REMARK  238  A    between atoms: _616  and  _617
REMARK  239  A    between atoms: _616  and  _619
REMARK  240  A    between atoms: _619  and  _620
REMARK  241  A    between atoms: _625  and  _627
REMARK  242  A    between atoms: _627  and  _628
REMARK  243  A    between atoms: _627  and  _630
REMARK  244  A    between atoms: _630  and  _631
REMARK  245  A    between atoms: _631  and  _632
REMARK  246  A    between atoms: _635  and  _637
REMARK  247  A    between atoms: _637  and  _638
REMARK  248  A    between atoms: _637  and  _640
REMARK  249  A    between atoms: _640  and  _641
REMARK  250  A    between atoms: _646  and  _647
REMARK  251  A    between atoms: _649  and  _651
REMARK  252  A    between atoms: _651  and  _652
REMARK  253  A    between atoms: _655  and  _657
REMARK  254  A    between atoms: _657  and  _658
REMARK  255  A    between atoms: _657  and  _660
REMARK  256  A    between atoms: _660  and  _661
REMARK  257  A    between atoms: _665  and  _666
REMARK  258  A    between atoms: _671  and  _673
REMARK  259  A    between atoms: _673  and  _674
REMARK  260  A    between atoms: _673  and  _676
REMARK  261  A    between atoms: _676  and  _677
REMARK  262  A    between atoms: _680  and  _682
REMARK  263  A    between atoms: _682  and  _683
REMARK  264  A    between atoms: _682  and  _685
REMARK  265  A    between atoms: _685  and  _686
REMARK  266  A    between atoms: _686  and  _687
REMARK  267  A    between atoms: _692  and  _694
REMARK  268  A    between atoms: _694  and  _695
REMARK  269  A    between atoms: _694  and  _697
REMARK  270  A    between atoms: _697  and  _698
REMARK  271  A    between atoms: _701  and  _703
REMARK  272  A    between atoms: _703  and  _704
REMARK  273  A    between atoms: _703  and  _706
REMARK  274  A    between atoms: _706  and  _707
REMARK  275  A    between atoms: _710  and  _712
REMARK  276  A    between atoms: _712  and  _713
REMARK  277  A    between atoms: _712  and  _715
REMARK  278  A    between atoms: _715  and  _716
REMARK                            x       y       z     vdW  Elec       q    Type
REMARK                         _______ _______ _______ _____ _____    ______ ____
ROOT
ATOM      1  CB  PHE A   1      37.586  -6.257 -19.026  0.00  0.00    +0.051 C 
ENDROOT
BRANCH   1   2
ATOM      2  CG  PHE A   1      37.882  -4.839 -18.587  0.00  0.00    -0.020 A 
ATOM      3  CD2 PHE A   1      39.142  -4.497 -18.072  0.00  0.00    -0.004 A 
ATOM      4  CE2 PHE A   1      39.413  -3.183 -17.676  0.00  0.00    -0.000 A 
ATOM      5  CZ  PHE A   1      38.421  -2.206 -17.773  0.00  0.00    -0.000 A 
ATOM      6  CE1 PHE A   1      37.172  -2.540 -18.293  0.00  0.00    -0.000 A 
ATOM      7  CD1 PHE A   1      36.913  -3.846 -18.690  0.00  0.00    -0.004 A 
ENDBRANCH   1   2
BRANCH   1   8
ATOM      8  CA  PHE A   1      37.155  -7.187 -17.869  0.00  0.00    +0.137 C 
BRANCH   8   9
ATOM      9  N   PHE A   1      36.749  -8.504 -18.365  0.00  0.00    -0.239 NA
ATOM     10  H   PHE A   1      36.808  -8.700 -19.385  0.00  0.00    +0.142 HD
ENDBRANCH   8   9
BRANCH   8  11
ATOM     11  C   PHE A   1      35.982  -6.557 -17.124  0.00  0.00    +0.224 C 
ATOM     12  O   PHE A   1      36.127  -6.070 -16.001  0.00  0.00    -0.287 OA
ENDBRANCH   8  11
ENDBRANCH   1   8
TORSDOF 4
REMARK  Name = ../refined-set-2016/4ksy/4ksy_pocket.pdb
REMARK  278 active torsions:
REMARK  status: ('A' for Active; 'I' for Inactive)
REMARK    1  A    between atoms: _1  and  _3
REMARK    2  A    between atoms: _3  and  _4
REMARK    3  A    between atoms: _6  and  _8
REMARK    4  A    between atoms: _8  and  _9
REMARK    5  A    between atoms: _8  and  _11
REMARK    6  A    between atoms: _11  and  _12
REMARK    7  A    between atoms: _15  and  _17
REMARK    8  A    between atoms: _17  and  _18
REMARK    9  A    between atoms: _21  and  _23
REMARK   10  A    between atoms: _23  and  _24
REMARK   11  A    between atoms: _23  and  _26
REMARK   12  A    between atoms: _26  and  _27
REMARK   13  A    between atoms: _37  and  _39
REMARK   14  A    between atoms: _39  and  _40
REMARK   15  A    between atoms: _39  and  _42
REMARK   16  A    between atoms: _42  and  _43
REMARK   17  A    between atoms: _45  and  _47
REMARK   18  A    between atoms: _47  and  _48
REMARK   19  A    between atoms: _47  and  _50
REMARK   20  A    between atoms: _50  and  _51
REMARK   21  A    between atoms: _56  and  _57
REMARK   22  A    between atoms: _59  and  _61
REMARK   23  A    between atoms: _61  and  _62
REMARK   24  A    between atoms: _61  and  _64
REMARK   25  A    between atoms: _64  and  _65
REMARK   26  A    between atoms: _70  and  _71
REMARK   27  A    between atoms: _73  and  _75
REMARK   28  A    between atoms: _75  and  _76
REMARK   29  A    between atoms: _75  and  _78
REMARK   30  A    between atoms: _78  and  _79
REMARK   31  A    between atoms: _82  and  _84
REMARK   32  A    between atoms: _84  and  _85
REMARK   33  A    between atoms: _87  and  _89
REMARK   34  A    between atoms: _89  and  _90
REMARK   35  A    between atoms: _89  and  _92
REMARK   36  A    between atoms: _92  and  _93
REMARK   37  A    between atoms: _98  and  _99
REMARK   38  A    between atoms: _101  and  _103
REMARK   39  A    between atoms: _103  and  _104
REMARK   40  A    between atoms: _103  and  _106
REMARK   41  A    between atoms: _106  and  _107
REMARK   42  A    between atoms: _110  and  _112
REMARK   43  A    between atoms: _112  and  _113
REMARK   44  A    between atoms: _112  and  _115
REMARK   45  A    between atoms: _115  and  _116
REMARK   46  A    between atoms: _116  and  _117
REMARK   47  A    between atoms: _117  and  _118
REMARK   48  A    between atoms: _127  and  _129
REMARK   49  A    between atoms: _129  and  _130
REMARK   50  A    between atoms: _129  and  _132
REMARK   51  A    between atoms: _132  and  _133
REMARK   52  A    between atoms: _136  and  _138
REMARK   53  A    between atoms: _138  and  _139
REMARK   54  A    between atoms: _138  and  _141
REMARK   55  A    between atoms: _141  and  _142
REMARK   56  A    between atoms: _145  and  _147
REMARK   57  A    between atoms: _147  and  _148
REMARK   58  A    between atoms: _147  and  _150
REMARK   59  A    between atoms: _150  and  _151
REMARK   60  A    between atoms: _154  and  _156
REMARK   61  A    between atoms: _156  and  _157
REMARK   62  A    between atoms: _156  and  _159
REMARK   63  A    between atoms: _159  and  _160
REMARK   64  A    between atoms: _163  and  _165
REMARK   65  A    between atoms: _165  and  _166
REMARK   66  A    between atoms: _165  and  _168
REMARK   67  A    between atoms: _168  and  _169
REMARK   68  A    between atoms: _169  and  _170
REMARK   69  A    between atoms: _175  and  _177
REMARK   70  A    between atoms: _177  and  _178
REMARK   71  A    between atoms: _177  and  _180
REMARK   72  A    between atoms: _180  and  _181
REMARK   73  A    between atoms: _181  and  _182
REMARK   74  A    between atoms: _182  and  _183
REMARK   75  A    between atoms: _192  and  _194
REMARK   76  A    between atoms: _194  and  _195
REMARK   77  A    between atoms: _198  and  _200
REMARK   78  A    between atoms: _200  and  _201
REMARK   79  A    between atoms: _200  and  _203
REMARK   80  A    between atoms: _203  and  _204
REMARK   81  A    between atoms: _207  and  _209
REMARK   82  A    between atoms: _209  and  _210
REMARK   83  A    between atoms: _209  and  _212
REMARK   84  A    between atoms: _212  and  _213
REMARK   85  A    between atoms: _216  and  _218
REMARK   86  A    between atoms: _218  and  _219
REMARK   87  A    between atoms: _218  and  _221
REMARK   88  A    between atoms: _221  and  _222
REMARK   89  A    between atoms: _222  and  _223
REMARK   90  A    between atoms: _223  and  _224
REMARK   91  A    between atoms: _233  and  _235
REMARK   92  A    between atoms: _235  and  _236
REMARK   93  A    between atoms: _235  and  _238
REMARK   94  A    between atoms: _241  and  _243
REMARK   95  A    between atoms: _243  and  _244
REMARK   96  A    between atoms: _243  and  _246
REMARK   97  A    between atoms: _246  and  _247
REMARK   98  A    between atoms: _252  and  _253
REMARK   99  A    between atoms: _255  and  _257
REMARK  100  A    between atoms: _257  and  _258
REMARK  101  A    between atoms: _257  and  _260
REMARK  102  A    between atoms: _260  and  _261
REMARK  103  A    between atoms: _263  and  _265
REMARK  104  A    between atoms: _265  and  _266
REMARK  105  A    between atoms: _265  and  _268
REMARK  106  A    between atoms: _268  and  _269
REMARK  107  A    between atoms: _274  and  _276
REMARK  108  A    between atoms: _276  and  _277
REMARK  109  A    between atoms: _276  and  _279
REMARK  110  A    between atoms: _279  and  _280
REMARK  111  A    between atoms: _280  and  _281
REMARK  112  A    between atoms: _284  and  _286
REMARK  113  A    between atoms: _286  and  _287
REMARK  114  A    between atoms: _286  and  _289
REMARK  115  A    between atoms: _289  and  _290
REMARK  116  A    between atoms: _295  and  _296
REMARK  117  A    between atoms: _298  and  _300
REMARK  118  A    between atoms: _300  and  _301
REMARK  119  A    between atoms: _304  and  _306
REMARK  120  A    between atoms: _306  and  _307
REMARK  121  A    between atoms: _306  and  _309
REMARK  122  A    between atoms: _309  and  _310
REMARK  123  A    between atoms: _314  and  _315
REMARK  124  A    between atoms: _320  and  _322
REMARK  125  A    between atoms: _322  and  _323
REMARK  126  A    between atoms: _322  and  _325
REMARK  127  A    between atoms: _325  and  _326
REMARK  128  A    between atoms: _329  and  _331
REMARK  129  A    between atoms: _331  and  _332
REMARK  130  A    between atoms: _331  and  _334
REMARK  131  A    between atoms: _334  and  _335
REMARK  132  A    between atoms: _335  and  _336
REMARK  133  A    between atoms: _341  and  _343
REMARK  134  A    between atoms: _343  and  _344
REMARK  135  A    between atoms: _343  and  _346
REMARK  136  A    between atoms: _346  and  _347
REMARK  137  A    between atoms: _350  and  _352
REMARK  138  A    between atoms: _352  and  _353
REMARK  139  A    between atoms: _352  and  _355
REMARK  140  A    between atoms: _355  and  _356
REMARK  141  A    between atoms: _362  and  _364
REMARK  142  A    between atoms: _364  and  _365
REMARK  143  A    between atoms: _364  and  _367
REMARK  144  A    between atoms: _367  and  _368
REMARK  145  A    between atoms: _371  and  _373
REMARK  146  A    between atoms: _373  and  _374
REMARK  147  A    between atoms: _377  and  _379
REMARK  148  A    between atoms: _379  and  _380
REMARK  149  A    between atoms: _379  and  _382
REMARK  150  A    between atoms: _382  and  _383
REMARK  151  A    between atoms: _393  and  _395
REMARK  152  A    between atoms: _395  and  _396
REMARK  153  A    between atoms: _395  and  _398
REMARK  154  A    between atoms: _398  and  _399
REMARK  155  A    between atoms: _401  and  _403
REMARK  156  A    between atoms: _403  and  _404
REMARK  157  A    between atoms: _403  and  _406
REMARK  158  A    between atoms: _406  and  _407
REMARK  159  A    between atoms: _412  and  _413
REMARK  160  A    between atoms: _415  and  _417
REMARK  161  A    between atoms: _417  and  _418
REMARK  162  A    between atoms: _417  and  _420
REMARK  163  A    between atoms: _420  and  _421
REMARK  164  A    between atoms: _426  and  _427
REMARK  165  A    between atoms: _429  and  _431
REMARK  166  A    between atoms: _431  and  _432
REMARK  167  A    between atoms: _431  and  _434
REMARK  168  A    between atoms: _434  and  _435
REMARK  169  A    between atoms: _438  and  _440
REMARK  170  A    between atoms: _440  and  _441
REMARK  171  A    between atoms: _443  and  _445
REMARK  172  A    between atoms: _445  and  _446
REMARK  173  A    between atoms: _445  and  _448
REMARK  174  A    between atoms: _448  and  _449
REMARK  175  A    between atoms: _454  and  _455
REMARK  176  A    between atoms: _457  and  _459
REMARK  177  A    between atoms: _459  and  _460
REMARK  178  A    between atoms: _459  and  _462
REMARK  179  A    between atoms: _462  and  _463
REMARK  180  A    between atoms: _466  and  _468
REMARK  181  A    between atoms: _468  and  _469
REMARK  182  A    between atoms: _468  and  _471
REMARK  183  A    between atoms: _471  and  _472
REMARK  184  A    between atoms: _472  and  _473
REMARK  185  A    between atoms: _473  and  _474
REMARK  186  A    between atoms: _483  and  _485
REMARK  187  A    between atoms: _485  and  _486
REMARK  188  A    between atoms: _485  and  _488
REMARK  189  A    between atoms: _488  and  _489
REMARK  190  A    between atoms: _492  and  _494
REMARK  191  A    between atoms: _494  and  _495
REMARK  192  A    between atoms: _494  and  _497
REMARK  193  A    between atoms: _497  and  _498
REMARK  194  A    between atoms: _501  and  _503
REMARK  195  A    between atoms: _503  and  _504
REMARK  196  A    between atoms: _503  and  _506
REMARK  197  A    between atoms: _506  and  _507
REMARK  198  A    between atoms: _507  and  _508
REMARK  199  A    between atoms: _508  and  _509
REMARK  200  A    between atoms: _518  and  _520
REMARK  201  A    between atoms: _520  and  _521
REMARK  202  A    between atoms: _520  and  _523
REMARK  203  A    between atoms: _523  and  _524
REMARK  204  A    between atoms: _524  and  _525
REMARK  205  A    between atoms: _530  and  _532
REMARK  206  A    between atoms: _532  and  _533
REMARK  207  A    between atoms: _532  and  _535
REMARK  208  A    between atoms: _535  and  _536
REMARK  209  A    between atoms: _536  and  _537
REMARK  210  A    between atoms: _537  and  _538
REMARK  211  A    between atoms: _547  and  _549
REMARK  212  A    between atoms: _549  and  _550
REMARK  213  A    between atoms: _553  and  _555
REMARK  214  A    between atoms: _555  and  _556
REMARK  215  A    between atoms: _558  and  _560
REMARK  216  A    between atoms: _560  and  _561
REMARK  217  A    between atoms: _560  and  _563
REMARK  218  A    between atoms: _563  and  _564
REMARK  219  A    between atoms: _567  and  _569
REMARK  220  A    between atoms: _569  and  _570
REMARK  221  A    between atoms: _569  and  _572
REMARK  222  A    between atoms: _572  and  _573
REMARK  223  A    between atoms: _573  and  _574
REMARK  224  A    between atoms: _574  and  _575
REMARK  225  A    between atoms: _584  and  _586
REMARK  226  A    between atoms: _586  and  _587
REMARK  227  A    between atoms: _586  and  _589
REMARK  228  A    between atoms: _592  and  _594
REMARK  229  A    between atoms: _594  and  _595
REMARK  230  A    between atoms: _594  and  _597
REMARK  231  A    between atoms: _597  and  _598
REMARK  232  A    between atoms: _603  and  _604
REMARK  233  A    between atoms: _606  and  _608
REMARK  234  A    between atoms: _608  and  _609
REMARK  235  A    between atoms: _608  and  _611
REMARK  236  A    between atoms: _611  and  _612
REMARK  237  A    between atoms: _614  and  _616
REMARK  238  A    between atoms: _616  and  _617
REMARK  239  A    between atoms: _616  and  _619
REMARK  240  A    between atoms: _619  and  _620
REMARK  241  A    between atoms: _625  and  _627
REMARK  242  A    between atoms: _627  and  _628
REMARK  243  A    between atoms: _627  and  _630
REMARK  244  A    between atoms: _630  and  _631
REMARK  245  A    between atoms: _631  and  _632
REMARK  246  A    between atoms: _635  and  _637
REMARK  247  A    between atoms: _637  and  _638
REMARK  248  A    between atoms: _637  and  _640
REMARK  249  A    between atoms: _640  and  _641
REMARK  250  A    between atoms: _646  and  _647
REMARK  251  A    between atoms: _649  and  _651
REMARK  252  A    between atoms: _651  and  _652
REMARK  253  A    between atoms: _655  and  _657
REMARK  254  A    between atoms: _657  and  _658
REMARK  255  A    between atoms: _657  and  _660
REMARK  256  A    between atoms: _660  and  _661
REMARK  257  A    between atoms: _665  and  _666
REMARK  258  A    between atoms: _671  and  _673
REMARK  259  A    between atoms: _673  and  _674
REMARK  260  A    between atoms: _673  and  _676
REMARK  261  A    between atoms: _676  and  _677
REMARK  262  A    between atoms: _680  and  _682
REMARK  263  A    between atoms: _682  and  _683
REMARK  264  A    between atoms: _682  and  _685
REMARK  265  A    between atoms: _685  and  _686
REMARK  266  A    between atoms: _686  and  _687
REMARK  267  A    between atoms: _692  and  _694
REMARK  268  A    between atoms: _694  and  _695
REMARK  269  A    between atoms: _694  and  _697
REMARK  270  A    between atoms: _697  and  _698
REMARK  271  A    between atoms: _701  and  _703
REMARK  272  A    between atoms: _703  and  _704
REMARK  273  A    between atoms: _703  and  _706
REMARK  274  A    between atoms: _706  and  _707
REMARK  275  A    between atoms: _710  and  _712
REMARK  276  A    between atoms: _712  and  _713
REMARK  277  A    between atoms: _712  and  _715
REMARK  278  A    between atoms: _715  and  _716
REMARK                            x       y       z     vdW  Elec       q    Type
REMARK                         _______ _______ _______ _____ _____    ______ ____
ROOT
ATOM      1  CA  ILE A   7      49.434   0.820 -26.709  0.00  0.00    +0.149 C 
ENDROOT
BRANCH   1   2
ATOM      2  C   ILE A   7      48.842   2.148 -26.234  0.00  0.00    +0.241 C 
ATOM      3  N   GLY A   8      48.768   2.295 -24.925  0.00  0.00    -0.295 N 
ATOM      4  H   GLY A   8      49.229   1.594 -24.310  0.00  0.00    +0.150 HD
ATOM      5  O   ILE A   7      48.498   3.041 -27.037  0.00  0.00    -0.273 OA
BRANCH   3   6
ATOM      6  CA  GLY A   8      48.060   3.410 -24.319  0.00  0.00    +0.176 C 
BRANCH   6   7
ATOM      7  C   GLY A   8      48.982   4.519 -23.855  0.00  0.00    +0.243 C 
ATOM      8  O   GLY A   8      48.542   5.502 -23.256  0.00  0.00    -0.273 OA
ATOM      9  N   TYR A   9      50.270   4.373 -24.123  0.00  0.00    -0.297 N 
ATOM     10  H   TYR A   9      50.604   3.551 -24.666  0.00  0.00    +0.150 HD
BRANCH   9  11
ATOM     11  CA  TYR A   9      51.220   5.383 -23.646  0.00  0.00    +0.153 C 
BRANCH  11  12
ATOM     12  C   TYR A   9      52.429   5.542 -24.538  0.00  0.00    +0.241 C 
ATOM     13  N   LEU A  10      53.319   4.548 -24.572  0.00  0.00    -0.297 N 
ATOM     14  H   LEU A  10      53.133   3.653 -24.077  0.00  0.00    +0.150 HD
ATOM     15  O   TYR A   9      52.544   6.562 -25.219  0.00  0.00    -0.273 OA
BRANCH  13  16
ATOM     16  CA  LEU A  10      54.567   4.743 -25.322  0.00  0.00    +0.149 C 
BRANCH  16  17
ATOM     17  C   LEU A  10      54.332   4.989 -26.807  0.00  0.00    +0.241 C 
ATOM     18  N   ARG A  11      53.374   4.289 -27.408  0.00  0.00    -0.297 N 
ATOM     19  H   ARG A  11      52.775   3.626 -26.876  0.00  0.00    +0.150 HD
ATOM     20  O   LEU A  10      55.022   5.799 -27.421  0.00  0.00    -0.273 OA
BRANCH  18  21
ATOM     21  CA  ARG A  11      53.196   4.488 -28.849  0.00  0.00    +0.149 C 
BRANCH  21  22
ATOM     22  C   ARG A  11      52.607   5.857 -29.151  0.00  0.00    +0.241 C 
ATOM     23  N   LEU A  12      51.968   6.459 -28.147  0.00  0.00    -0.297 N 
ATOM     24  H   LEU A  12      51.908   5.969 -27.232  0.00  0.00    +0.150 HD
ATOM     25  O   ARG A  11      52.743   6.356 -30.266  0.00  0.00    -0.273 OA
BRANCH  23  26
ATOM     26  CA  LEU A  12      51.353   7.765 -28.273  0.00  0.00    +0.149 C 
BRANCH  26  27
ATOM     27  C   LEU A  12      52.334   8.906 -28.008  0.00  0.00    +0.241 C 
ATOM     28  N   ILE A  13      53.244   8.724 -27.064  0.00  0.00    -0.298 N 
ATOM     29  H   ILE A  13      53.318   7.810 -26.573  0.00  0.00    +0.150 HD
ATOM     30  O   LEU A  12      52.255   9.956 -28.639  0.00  0.00    -0.273 OA
BRANCH  28  31
ATOM     31  CA  ILE A  13      54.142   9.824 -26.722  0.00  0.00    +0.137 C 
BRANCH  31  32
ATOM     32  CB  ILE A  13      54.289  10.018 -25.197  0.00  0.00    +0.026 C 
ATOM     33  CG2 ILE A  13      52.918  10.198 -24.534  0.00  0.00    +0.002 C 
BRANCH  32  34
ATOM     34  CG1 ILE A  13      55.030   8.842 -24.574  0.00  0.00    +0.002 C 
ATOM     35  CD1 ILE A  13      55.807   9.229 -23.344  0.00  0.00    +0.000 C 
ENDBRANCH  32  34
ENDBRANCH  31  32
BRANCH  31  36
ATOM     36  C   ILE A  13      55.528   9.755 -27.365  0.00  0.00    +0.227 C 
ATOM     37  O   ILE A  13      56.147  10.796 -27.612  0.00  0.00    -0.286 OA
ENDBRANCH  31  36
ENDBRANCH  28  31
ENDBRANCH  26  27
BRANCH  26  38
ATOM     38  CB  LEU A  12      50.167   7.892 -27.318  0.00  0.00    +0.029 C 
BRANCH  38  39
ATOM     39  CG  LEU A  12      49.091   6.819 -27.460  0.00  0.00    +0.002 C 
ATOM     40  CD2 LEU A  12      48.012   7.015 -26.401  0.00  0.00    +0.000 C 
ATOM     41  CD1 LEU A  12      48.502   6.818 -28.865  0.00  0.00    +0.000 C 
ENDBRANCH  38  39
ENDBRANCH  26  38
ENDBRANCH  23  26
ENDBRANCH  21  22
BRANCH  21  42
ATOM     42  CB  ARG A  11      52.390   3.366 -29.508  0.00  0.00    +0.033 C 
BRANCH  42  43
ATOM     43  CG  ARG A  11      50.907   3.465 -29.352  0.00  0.00    +0.045 C 
BRANCH  43  44
ATOM     44  CD  ARG A  11      50.203   2.356 -30.163  0.00  0.00    +0.174 C 
BRANCH  44  45
ATOM     45  NE  ARG A  11      48.753   2.464 -30.029  0.00  0.00    -0.265 N 
ATOM     46  HE  ARG A  11      48.379   3.076 -29.276  0.00  0.00    +0.259 HD
ATOM     47  CZ  ARG A  11      47.878   1.831 -30.806  0.00  0.00    +0.342 C 
ATOM     48  NH2 ARG A  11      46.580   1.992 -30.605  0.00  0.00    -0.292 N 
ATOM     49 HH21 ARG A  11      46.245   2.613 -29.841  0.00  0.00    +0.255 HD
ATOM     50 HH22 ARG A  11      45.895   1.498 -31.211  0.00  0.00    +0.255 HD
ATOM     51  NH1 ARG A  11      48.300   1.043 -31.785  0.00  0.00    -0.292 N 
ATOM     52 HH11 ARG A  11      49.319   0.917 -31.949  0.00  0.00    +0.255 HD
ATOM     53 HH12 ARG A  11      47.612   0.551 -32.389  0.00  0.00    +0.255 HD
ENDBRANCH  44  45
ENDBRANCH  43  44
ENDBRANCH  42  43
ENDBRANCH  21  42
ENDBRANCH  18  21
ENDBRANCH  16  17
BRANCH  16  54
ATOM     54  CB  LEU A  10      55.552   3.578 -25.128  0.00  0.00    +0.029 C 
BRANCH  54  55
ATOM     55  CG  LEU A  10      56.069   3.408 -23.686  0.00  0.00    +0.002 C 
ATOM     56  CD2 LEU A  10      56.669   4.715 -23.169  0.00  0.00    +0.000 C 
ATOM     57  CD1 LEU A  10      57.097   2.259 -23.579  0.00  0.00    +0.000 C 
ENDBRANCH  54  55
ENDBRANCH  16  54
ENDBRANCH  13  16
ENDBRANCH  11  12
BRANCH  11  58
ATOM     58  CB  TYR A   9      51.643   5.096 -22.203  0.00  0.00    +0.055 C 
BRANCH  58  59
ATOM     59  CG  TYR A   9      52.531   6.160 -21.578  0.00  0.00    -0.020 A 
ATOM     60  CD2 TYR A   9      53.805   5.840 -21.120  0.00  0.00    -0.001 A 
ATOM     61  CE2 TYR A   9      54.631   6.804 -20.525  0.00  0.00    +0.036 A 
ATOM     62  CZ  TYR A   9      54.173   8.110 -20.399  0.00  0.00    +0.134 A 
ATOM     63  CE1 TYR A   9      52.915   8.458 -20.852  0.00  0.00    +0.036 A 
ATOM     64  CD1 TYR A   9      52.091   7.473 -21.435  0.00  0.00    -0.001 A 
BRANCH  62  65
ATOM     65  OH  TYR A   9      54.988   9.068 -19.820  0.00  0.00    -0.506 OA
ATOM     66  HH  TYR A   9      55.208   8.797 -18.894  0.00  0.00    +0.292 HD
ENDBRANCH  62  65
ENDBRANCH  58  59
ENDBRANCH  11  58
ENDBRANCH   9  11
ENDBRANCH   6   7
ENDBRANCH   3   6
ENDBRANCH   1   2
BRANCH   1  68
ATOM     67  C   TYR A   6      51.736   1.066 -25.896  0.00  0.00    +0.241 C 
ATOM     68  N   ILE A   7      50.594   0.383 -25.914  0.00  0.00    -0.297 N 
ATOM     69  H   ILE A   7      50.518  -0.487 -25.349  0.00  0.00    +0.150 HD
ATOM     70  O   TYR A   6      51.859   2.179 -26.429  0.00  0.00    -0.273 OA
BRANCH  67  71
ATOM     71  CA  TYR A   6      52.902   0.397 -25.161  0.00  0.00    +0.153 C 
BRANCH  71  74
ATOM     72  C   TYR A   5      52.348   0.926 -22.884  0.00  0.00    +0.241 C 
ATOM     73  O   TYR A   5      52.593   2.104 -23.091  0.00  0.00    -0.273 OA
ATOM     74  N   TYR A   6      52.500   0.001 -23.822  0.00  0.00    -0.297 N 
ATOM     75  H   TYR A   6      52.333  -1.001 -23.601  0.00  0.00    +0.150 HD
BRANCH  72  76
ATOM     76  CA  TYR A   5      51.844   0.463 -21.519  0.00  0.00    +0.153 C 
BRANCH  76  78
ATOM     77  C   SER A   4      49.689  -0.442 -22.242  0.00  0.00    +0.243 C 
ATOM     78  N   TYR A   5      50.863  -0.631 -21.649  0.00  0.00    -0.297 N 
ATOM     79  H   TYR A   5      51.095  -1.571 -21.268  0.00  0.00    +0.150 HD
ATOM     80  O   SER A   4      49.372   0.639 -22.726  0.00  0.00    -0.273 OA
BRANCH  77  81
ATOM     81  CA  SER A   4      48.768  -1.666 -22.378  0.00  0.00    +0.178 C 
BRANCH  81  83
ATOM     82  C   TRP A   3      50.211  -2.954 -23.859  0.00  0.00    +0.241 C 
ATOM     83  N   SER A   4      49.524  -2.869 -22.727  0.00  0.00    -0.295 N 
ATOM     84  H   SER A   4      49.523  -3.677 -22.072  0.00  0.00    +0.150 HD
ATOM     85  O   TRP A   3      50.231  -2.054 -24.694  0.00  0.00    -0.273 OA
BRANCH  82  86
ATOM     86  CA  TRP A   3      50.990  -4.252 -24.091  0.00  0.00    +0.153 C 
BRANCH  86  89
ATOM     87  C   ALA A   2      52.618  -3.899 -22.338  0.00  0.00    +0.241 C 
ATOM     88  O   ALA A   2      53.001  -2.857 -22.867  0.00  0.00    -0.273 OA
ATOM     89  N   TRP A   3      51.692  -4.680 -22.888  0.00  0.00    -0.297 N 
ATOM     90  H   TRP A   3      51.468  -5.600 -22.458  0.00  0.00    +0.150 HD
BRANCH  87  91
ATOM     91  CA  ALA A   2      53.230  -4.391 -21.026  0.00  0.00    +0.149 C 
ATOM     92  CB  ALA A   2      54.319  -5.457 -21.331  0.00  0.00    +0.031 C 
BRANCH  91  95
ATOM     93  C   LEU A   1      51.290  -4.097 -19.595  0.00  0.00    +0.238 C 
ATOM     94  O   LEU A   1      51.315  -2.886 -19.796  0.00  0.00    -0.274 OA
ATOM     95  N   ALA A   2      52.192  -4.924 -20.123  0.00  0.00    -0.297 N 
ATOM     96  H   ALA A   2      52.164  -5.939 -19.900  0.00  0.00    +0.150 HD
BRANCH  93  97
ATOM     97  CA  LEU A   1      50.200  -4.703 -18.707  0.00  0.00    +0.145 C 
BRANCH  97  98
ATOM     98  N   LEU A   1      49.779  -6.019 -19.180  0.00  0.00    -0.238 NA
ATOM     99  H   LEU A   1      49.978  -6.868 -18.614  0.00  0.00    +0.142 HD
ENDBRANCH  97  98
BRANCH  97 100
ATOM    100  CB  LEU A   1      50.700  -4.774 -17.269  0.00  0.00    +0.026 C 
BRANCH 100 101
ATOM    101  CG  LEU A   1      49.649  -5.177 -16.227  0.00  0.00    +0.002 C 
ATOM    102  CD2 LEU A   1      50.304  -5.208 -14.867  0.00  0.00    +0.000 C 
ATOM    103  CD1 LEU A   1      48.449  -4.216 -16.253  0.00  0.00    +0.000 C 
ENDBRANCH 100 101
ENDBRANCH  97 100
ENDBRANCH  93  97
ENDBRANCH  91  95
ENDBRANCH  87  91
ENDBRANCH  86  89
BRANCH  86 104
ATOM    104  CB  TRP A   3      50.109  -5.388 -24.653  0.00  0.00    +0.057 C 
BRANCH 104 105
ATOM    105  CG  TRP A   3      50.963  -6.286 -25.540  0.00  0.00    -0.002 A 
ATOM    106  CD1 TRP A   3      51.557  -7.470 -25.199  0.00  0.00    +0.068 A 
ATOM    107  NE1 TRP A   3      52.282  -7.963 -26.268  0.00  0.00    -0.352 N 
ATOM    108  HE1 TRP A   3      52.808  -8.860 -26.283  0.00  0.00    +0.166 HD
ATOM    109  CE2 TRP A   3      52.191  -7.073 -27.304  0.00  0.00    +0.056 A 
ATOM    110  CZ2 TRP A   3      52.747  -7.123 -28.580  0.00  0.00    +0.017 A 
ATOM    111  CH2 TRP A   3      52.485  -6.076 -29.427  0.00  0.00    +0.001 A 
ATOM    112  CZ3 TRP A   3      51.673  -5.011 -29.042  0.00  0.00    +0.000 A 
ATOM    113  CE3 TRP A   3      51.121  -4.950 -27.765  0.00  0.00    +0.001 A 
ATOM    114  CD2 TRP A   3      51.374  -6.002 -26.878  0.00  0.00    +0.013 A 
ENDBRANCH 104 105
ENDBRANCH  86 104
ENDBRANCH  82  86
ENDBRANCH  81  83
BRANCH  81 115
ATOM    115  CB  SER A   4      47.940  -1.938 -21.110  0.00  0.00    +0.166 C 
BRANCH 115 116
ATOM    116  OG  SER A   4      47.826  -0.808 -20.279  0.00  0.00    -0.380 OA
ATOM    117  H   SER A   4      47.384  -0.076 -20.778  0.00  0.00    +0.211 HD
ENDBRANCH 115 116
ENDBRANCH  81 115
ENDBRANCH  77  81
ENDBRANCH  76  78
BRANCH  76 118
ATOM    118  CB  TYR A   5      53.006   0.001 -20.665  0.00  0.00    +0.055 C 
BRANCH 118 119
ATOM    119  CG  TYR A   5      53.959   1.057 -20.163  0.00  0.00    -0.020 A 
ATOM    120  CD2 TYR A   5      53.510   2.182 -19.447  0.00  0.00    -0.001 A 
ATOM    121  CE2 TYR A   5      54.420   3.128 -18.964  0.00  0.00    +0.036 A 
ATOM    122  CZ  TYR A   5      55.777   2.944 -19.173  0.00  0.00    +0.134 A 
ATOM    123  CE1 TYR A   5      56.230   1.840 -19.864  0.00  0.00    +0.036 A 
ATOM    124  CD1 TYR A   5      55.327   0.905 -20.349  0.00  0.00    -0.001 A 
BRANCH 122 125
ATOM    125  OH  TYR A   5      56.711   3.858 -18.700  0.00  0.00    -0.506 OA
ATOM    126  HH  TYR A   5      56.243   4.592 -18.228  0.00  0.00    +0.292 HD
ENDBRANCH 122 125
ENDBRANCH 118 119
ENDBRANCH  76 118
ENDBRANCH  72  76
ENDBRANCH  71  74
BRANCH  71 127
ATOM    127  CB  TYR A   6      53.402  -0.825 -25.939  0.00  0.00    +0.055 C 
BRANCH 127 128
ATOM    128  CG  TYR A   6      53.589  -0.547 -27.423  0.00  0.00    -0.020 A 
ATOM    129  CD2 TYR A   6      54.576   0.331 -27.869  0.00  0.00    -0.001 A 
ATOM    130  CE2 TYR A   6      54.741   0.595 -29.230  0.00  0.00    +0.036 A 
ATOM    131  CZ  TYR A   6      53.927  -0.035 -30.150  0.00  0.00    +0.134 A 
ATOM    132  CE1 TYR A   6      52.946  -0.917 -29.733  0.00  0.00    +0.036 A 
ATOM    133  CD1 TYR A   6      52.786  -1.172 -28.371  0.00  0.00    -0.001 A 
BRANCH 131 134
ATOM    134  OH  TYR A   6      54.086   0.216 -31.496  0.00  0.00    -0.506 OA
ATOM    135  HH  TYR A   6      54.824   0.864 -31.625  0.00  0.00    +0.292 HD
ENDBRANCH 131 134
ENDBRANCH 127 128
ENDBRANCH  71 127
ENDBRANCH  67  71
ENDBRANCH   1  68
BRANCH   1 136
ATOM    136  CB  ILE A   7      48.319  -0.268 -26.675  0.00  0.00    +0.027 C 
ATOM    137  CG2 ILE A   7      46.943   0.312 -27.137  0.00  0.00    +0.002 C 
BRANCH 136 138
ATOM    138  CG1 ILE A   7      48.714  -1.472 -27.543  0.00  0.00    +0.002 C 
ATOM    139  CD1 ILE A   7      48.000  -2.792 -27.105  0.00  0.00    +0.000 C 
ENDBRANCH 136 138
ENDBRANCH   1 136
TORSDOF 53
REMARK  Name = ../refined-set-2016/4ksy/4ksy_pocket.pdb
REMARK  278 active torsions:
REMARK  status: ('A' for Active; 'I' for Inactive)
REMARK    1  A    between atoms: _1  and  _3
REMARK    2  A    between atoms: _3  and  _4
REMARK    3  A    between atoms: _6  and  _8
REMARK    4  A    between atoms: _8  and  _9
REMARK    5  A    between atoms: _8  and  _11
REMARK    6  A    between atoms: _11  and  _12
REMARK    7  A    between atoms: _15  and  _17
REMARK    8  A    between atoms: _17  and  _18
REMARK    9  A    between atoms: _21  and  _23
REMARK   10  A    between atoms: _23  and  _24
REMARK   11  A    between atoms: _23  and  _26
REMARK   12  A    between atoms: _26  and  _27
REMARK   13  A    between atoms: _37  and  _39
REMARK   14  A    between atoms: _39  and  _40
REMARK   15  A    between atoms: _39  and  _42
REMARK   16  A    between atoms: _42  and  _43
REMARK   17  A    between atoms: _45  and  _47
REMARK   18  A    between atoms: _47  and  _48
REMARK   19  A    between atoms: _47  and  _50
REMARK   20  A    between atoms: _50  and  _51
REMARK   21  A    between atoms: _56  and  _57
REMARK   22  A    between atoms: _59  and  _61
REMARK   23  A    between atoms: _61  and  _62
REMARK   24  A    between atoms: _61  and  _64
REMARK   25  A    between atoms: _64  and  _65
REMARK   26  A    between atoms: _70  and  _71
REMARK   27  A    between atoms: _73  and  _75
REMARK   28  A    between atoms: _75  and  _76
REMARK   29  A    between atoms: _75  and  _78
REMARK   30  A    between atoms: _78  and  _79
REMARK   31  A    between atoms: _82  and  _84
REMARK   32  A    between atoms: _84  and  _85
REMARK   33  A    between atoms: _87  and  _89
REMARK   34  A    between atoms: _89  and  _90
REMARK   35  A    between atoms: _89  and  _92
REMARK   36  A    between atoms: _92  and  _93
REMARK   37  A    between atoms: _98  and  _99
REMARK   38  A    between atoms: _101  and  _103
REMARK   39  A    between atoms: _103  and  _104
REMARK   40  A    between atoms: _103  and  _106
REMARK   41  A    between atoms: _106  and  _107
REMARK   42  A    between atoms: _110  and  _112
REMARK   43  A    between atoms: _112  and  _113
REMARK   44  A    between atoms: _112  and  _115
REMARK   45  A    between atoms: _115  and  _116
REMARK   46  A    between atoms: _116  and  _117
REMARK   47  A    between atoms: _117  and  _118
REMARK   48  A    between atoms: _127  and  _129
REMARK   49  A    between atoms: _129  and  _130
REMARK   50  A    between atoms: _129  and  _132
REMARK   51  A    between atoms: _132  and  _133
REMARK   52  A    between atoms: _136  and  _138
REMARK   53  A    between atoms: _138  and  _139
REMARK   54  A    between atoms: _138  and  _141
REMARK   55  A    between atoms: _141  and  _142
REMARK   56  A    between atoms: _145  and  _147
REMARK   57  A    between atoms: _147  and  _148
REMARK   58  A    between atoms: _147  and  _150
REMARK   59  A    between atoms: _150  and  _151
REMARK   60  A    between atoms: _154  and  _156
REMARK   61  A    between atoms: _156  and  _157
REMARK   62  A    between atoms: _156  and  _159
REMARK   63  A    between atoms: _159  and  _160
REMARK   64  A    between atoms: _163  and  _165
REMARK   65  A    between atoms: _165  and  _166
REMARK   66  A    between atoms: _165  and  _168
REMARK   67  A    between atoms: _168  and  _169
REMARK   68  A    between atoms: _169  and  _170
REMARK   69  A    between atoms: _175  and  _177
REMARK   70  A    between atoms: _177  and  _178
REMARK   71  A    between atoms: _177  and  _180
REMARK   72  A    between atoms: _180  and  _181
REMARK   73  A    between atoms: _181  and  _182
REMARK   74  A    between atoms: _182  and  _183
REMARK   75  A    between atoms: _192  and  _194
REMARK   76  A    between atoms: _194  and  _195
REMARK   77  A    between atoms: _198  and  _200
REMARK   78  A    between atoms: _200  and  _201
REMARK   79  A    between atoms: _200  and  _203
REMARK   80  A    between atoms: _203  and  _204
REMARK   81  A    between atoms: _207  and  _209
REMARK   82  A    between atoms: _209  and  _210
REMARK   83  A    between atoms: _209  and  _212
REMARK   84  A    between atoms: _212  and  _213
REMARK   85  A    between atoms: _216  and  _218
REMARK   86  A    between atoms: _218  and  _219
REMARK   87  A    between atoms: _218  and  _221
REMARK   88  A    between atoms: _221  and  _222
REMARK   89  A    between atoms: _222  and  _223
REMARK   90  A    between atoms: _223  and  _224
REMARK   91  A    between atoms: _233  and  _235
REMARK   92  A    between atoms: _235  and  _236
REMARK   93  A    between atoms: _235  and  _238
REMARK   94  A    between atoms: _241  and  _243
REMARK   95  A    between atoms: _243  and  _244
REMARK   96  A    between atoms: _243  and  _246
REMARK   97  A    between atoms: _246  and  _247
REMARK   98  A    between atoms: _252  and  _253
REMARK   99  A    between atoms: _255  and  _257
REMARK  100  A    between atoms: _257  and  _258
REMARK  101  A    between atoms: _257  and  _260
REMARK  102  A    between atoms: _260  and  _261
REMARK  103  A    between atoms: _263  and  _265
REMARK  104  A    between atoms: _265  and  _266
REMARK  105  A    between atoms: _265  and  _268
REMARK  106  A    between atoms: _268  and  _269
REMARK  107  A    between atoms: _274  and  _276
REMARK  108  A    between atoms: _276  and  _277
REMARK  109  A    between atoms: _276  and  _279
REMARK  110  A    between atoms: _279  and  _280
REMARK  111  A    between atoms: _280  and  _281
REMARK  112  A    between atoms: _284  and  _286
REMARK  113  A    between atoms: _286  and  _287
REMARK  114  A    between atoms: _286  and  _289
REMARK  115  A    between atoms: _289  and  _290
REMARK  116  A    between atoms: _295  and  _296
REMARK  117  A    between atoms: _298  and  _300
REMARK  118  A    between atoms: _300  and  _301
REMARK  119  A    between atoms: _304  and  _306
REMARK  120  A    between atoms: _306  and  _307
REMARK  121  A    between atoms: _306  and  _309
REMARK  122  A    between atoms: _309  and  _310
REMARK  123  A    between atoms: _314  and  _315
REMARK  124  A    between atoms: _320  and  _322
REMARK  125  A    between atoms: _322  and  _323
REMARK  126  A    between atoms: _322  and  _325
REMARK  127  A    between atoms: _325  and  _326
REMARK  128  A    between atoms: _329  and  _331
REMARK  129  A    between atoms: _331  and  _332
REMARK  130  A    between atoms: _331  and  _334
REMARK  131  A    between atoms: _334  and  _335
REMARK  132  A    between atoms: _335  and  _336
REMARK  133  A    between atoms: _341  and  _343
REMARK  134  A    between atoms: _343  and  _344
REMARK  135  A    between atoms: _343  and  _346
REMARK  136  A    between atoms: _346  and  _347
REMARK  137  A    between atoms: _350  and  _352
REMARK  138  A    between atoms: _352  and  _353
REMARK  139  A    between atoms: _352  and  _355
REMARK  140  A    between atoms: _355  and  _356
REMARK  141  A    between atoms: _362  and  _364
REMARK  142  A    between atoms: _364  and  _365
REMARK  143  A    between atoms: _364  and  _367
REMARK  144  A    between atoms: _367  and  _368
REMARK  145  A    between atoms: _371  and  _373
REMARK  146  A    between atoms: _373  and  _374
REMARK  147  A    between atoms: _377  and  _379
REMARK  148  A    between atoms: _379  and  _380
REMARK  149  A    between atoms: _379  and  _382
REMARK  150  A    between atoms: _382  and  _383
REMARK  151  A    between atoms: _393  and  _395
REMARK  152  A    between atoms: _395  and  _396
REMARK  153  A    between atoms: _395  and  _398
REMARK  154  A    between atoms: _398  and  _399
REMARK  155  A    between atoms: _401  and  _403
REMARK  156  A    between atoms: _403  and  _404
REMARK  157  A    between atoms: _403  and  _406
REMARK  158  A    between atoms: _406  and  _407
REMARK  159  A    between atoms: _412  and  _413
REMARK  160  A    between atoms: _415  and  _417
REMARK  161  A    between atoms: _417  and  _418
REMARK  162  A    between atoms: _417  and  _420
REMARK  163  A    between atoms: _420  and  _421
REMARK  164  A    between atoms: _426  and  _427
REMARK  165  A    between atoms: _429  and  _431
REMARK  166  A    between atoms: _431  and  _432
REMARK  167  A    between atoms: _431  and  _434
REMARK  168  A    between atoms: _434  and  _435
REMARK  169  A    between atoms: _438  and  _440
REMARK  170  A    between atoms: _440  and  _441
REMARK  171  A    between atoms: _443  and  _445
REMARK  172  A    between atoms: _445  and  _446
REMARK  173  A    between atoms: _445  and  _448
REMARK  174  A    between atoms: _448  and  _449
REMARK  175  A    between atoms: _454  and  _455
REMARK  176  A    between atoms: _457  and  _459
REMARK  177  A    between atoms: _459  and  _460
REMARK  178  A    between atoms: _459  and  _462
REMARK  179  A    between atoms: _462  and  _463
REMARK  180  A    between atoms: _466  and  _468
REMARK  181  A    between atoms: _468  and  _469
REMARK  182  A    between atoms: _468  and  _471
REMARK  183  A    between atoms: _471  and  _472
REMARK  184  A    between atoms: _472  and  _473
REMARK  185  A    between atoms: _473  and  _474
REMARK  186  A    between atoms: _483  and  _485
REMARK  187  A    between atoms: _485  and  _486
REMARK  188  A    between atoms: _485  and  _488
REMARK  189  A    between atoms: _488  and  _489
REMARK  190  A    between atoms: _492  and  _494
REMARK  191  A    between atoms: _494  and  _495
REMARK  192  A    between atoms: _494  and  _497
REMARK  193  A    between atoms: _497  and  _498
REMARK  194  A    between atoms: _501  and  _503
REMARK  195  A    between atoms: _503  and  _504
REMARK  196  A    between atoms: _503  and  _506
REMARK  197  A    between atoms: _506  and  _507
REMARK  198  A    between atoms: _507  and  _508
REMARK  199  A    between atoms: _508  and  _509
REMARK  200  A    between atoms: _518  and  _520
REMARK  201  A    between atoms: _520  and  _521
REMARK  202  A    between atoms: _520  and  _523
REMARK  203  A    between atoms: _523  and  _524
REMARK  204  A    between atoms: _524  and  _525
REMARK  205  A    between atoms: _530  and  _532
REMARK  206  A    between atoms: _532  and  _533
REMARK  207  A    between atoms: _532  and  _535
REMARK  208  A    between atoms: _535  and  _536
REMARK  209  A    between atoms: _536  and  _537
REMARK  210  A    between atoms: _537  and  _538
REMARK  211  A    between atoms: _547  and  _549
REMARK  212  A    between atoms: _549  and  _550
REMARK  213  A    between atoms: _553  and  _555
REMARK  214  A    between atoms: _555  and  _556
REMARK  215  A    between atoms: _558  and  _560
REMARK  216  A    between atoms: _560  and  _561
REMARK  217  A    between atoms: _560  and  _563
REMARK  218  A    between atoms: _563  and  _564
REMARK  219  A    between atoms: _567  and  _569
REMARK  220  A    between atoms: _569  and  _570
REMARK  221  A    between atoms: _569  and  _572
REMARK  222  A    between atoms: _572  and  _573
REMARK  223  A    between atoms: _573  and  _574
REMARK  224  A    between atoms: _574  and  _575
REMARK  225  A    between atoms: _584  and  _586
REMARK  226  A    between atoms: _586  and  _587
REMARK  227  A    between atoms: _586  and  _589
REMARK  228  A    between atoms: _592  and  _594
REMARK  229  A    between atoms: _594  and  _595
REMARK  230  A    between atoms: _594  and  _597
REMARK  231  A    between atoms: _597  and  _598
REMARK  232  A    between atoms: _603  and  _604
REMARK  233  A    between atoms: _606  and  _608
REMARK  234  A    between atoms: _608  and  _609
REMARK  235  A    between atoms: _608  and  _611
REMARK  236  A    between atoms: _611  and  _612
REMARK  237  A    between atoms: _614  and  _616
REMARK  238  A    between atoms: _616  and  _617
REMARK  239  A    between atoms: _616  and  _619
REMARK  240  A    between atoms: _619  and  _620
REMARK  241  A    between atoms: _625  and  _627
REMARK  242  A    between atoms: _627  and  _628
REMARK  243  A    between atoms: _627  and  _630
REMARK  244  A    between atoms: _630  and  _631
REMARK  245  A    between atoms: _631  and  _632
REMARK  246  A    between atoms: _635  and  _637
REMARK  247  A    between atoms: _637  and  _638
REMARK  248  A    between atoms: _637  and  _640
REMARK  249  A    between atoms: _640  and  _641
REMARK  250  A    between atoms: _646  and  _647
REMARK  251  A    between atoms: _649  and  _651
REMARK  252  A    between atoms: _651  and  _652
REMARK  253  A    between atoms: _655  and  _657
REMARK  254  A    between atoms: _657  and  _658
REMARK  255  A    between atoms: _657  and  _660
REMARK  256  A    between atoms: _660  and  _661
REMARK  257  A    between atoms: _665  and  _666
REMARK  258  A    between atoms: _671  and  _673
REMARK  259  A    between atoms: _673  and  _674
REMARK  260  A    between atoms: _673  and  _676
REMARK  261  A    between atoms: _676  and  _677
REMARK  262  A    between atoms: _680  and  _682
REMARK  263  A    between atoms: _682  and  _683
REMARK  264  A    between atoms: _682  and  _685
REMARK  265  A    between atoms: _685  and  _686
REMARK  266  A    between atoms: _686  and  _687
REMARK  267  A    between atoms: _692  and  _694
REMARK  268  A    between atoms: _694  and  _695
REMARK  269  A    between atoms: _694  and  _697
REMARK  270  A    between atoms: _697  and  _698
REMARK  271  A    between atoms: _701  and  _703
REMARK  272  A    between atoms: _703  and  _704
REMARK  273  A    between atoms: _703  and  _706
REMARK  274  A    between atoms: _706  and  _707
REMARK  275  A    between atoms: _710  and  _712
REMARK  276  A    between atoms: _712  and  _713
REMARK  277  A    between atoms: _712  and  _715
REMARK  278  A    between atoms: _715  and  _716
REMARK                            x       y       z     vdW  Elec       q    Type
REMARK                         _______ _______ _______ _____ _____    ______ ____
ROOT
ATOM      1  NE  ARG A   1      55.687  16.446 -24.614  0.00  0.00    -0.265 N 
ATOM      2  CZ  ARG A   1      55.666  15.502 -23.669  0.00  0.00    +0.342 C 
ATOM      3  NH2 ARG A   1      55.463  15.830 -22.398  0.00  0.00    -0.292 N 
ATOM      4 HH21 ARG A   1      55.448  15.091 -21.666  0.00  0.00    +0.255 HD
ATOM      5 HH22 ARG A   1      55.319  16.826 -22.134  0.00  0.00    +0.255 HD
ATOM      6  NH1 ARG A   1      55.857  14.226 -23.989  0.00  0.00    -0.292 N 
ATOM      7 HH11 ARG A   1      55.839  13.496 -23.249  0.00  0.00    +0.255 HD
ATOM      8 HH12 ARG A   1      56.024  13.958 -24.980  0.00  0.00    +0.255 HD
ATOM      9  HE  ARG A   1      55.556  17.434 -24.316  0.00  0.00    +0.259 HD
ENDROOT
BRANCH   1  10
ATOM     10  CD  ARG A   1      55.882  16.183 -26.042  0.00  0.00    +0.174 C 
BRANCH  10  11
ATOM     11  CG  ARG A   1      56.621  17.318 -26.757  0.00  0.00    +0.045 C 
BRANCH  11  12
ATOM     12  CB  ARG A   1      58.073  17.406 -26.286  0.00  0.00    +0.029 C 
BRANCH  12  13
ATOM     13  CA  ARG A   1      58.974  18.239 -27.217  0.00  0.00    +0.133 C 
BRANCH  13  14
ATOM     14  N   ARG A   1      59.227  17.562 -28.487  0.00  0.00    -0.239 NA
ATOM     15  H   ARG A   1      58.964  16.562 -28.602  0.00  0.00    +0.142 HD
ENDBRANCH  13  14
BRANCH  13  16
ATOM     16  C   ARG A   1      60.281  18.590 -26.514  0.00  0.00    +0.224 C 
ATOM     17  O   ARG A   1      60.394  19.662 -25.914  0.00  0.00    -0.287 OA
ENDBRANCH  13  16
ENDBRANCH  12  13
ENDBRANCH  11  12
ENDBRANCH  10  11
ENDBRANCH   1  10
TORSDOF 6
REMARK  Name = ../refined-set-2016/4ksy/4ksy_pocket.pdb
REMARK  278 active torsions:
REMARK  status: ('A' for Active; 'I' for Inactive)
REMARK    1  A    between atoms: _1  and  _3
REMARK    2  A    between atoms: _3  and  _4
REMARK    3  A    between atoms: _6  and  _8
REMARK    4  A    between atoms: _8  and  _9
REMARK    5  A    between atoms: _8  and  _11
REMARK    6  A    between atoms: _11  and  _12
REMARK    7  A    between atoms: _15  and  _17
REMARK    8  A    between atoms: _17  and  _18
REMARK    9  A    between atoms: _21  and  _23
REMARK   10  A    between atoms: _23  and  _24
REMARK   11  A    between atoms: _23  and  _26
REMARK   12  A    between atoms: _26  and  _27
REMARK   13  A    between atoms: _37  and  _39
REMARK   14  A    between atoms: _39  and  _40
REMARK   15  A    between atoms: _39  and  _42
REMARK   16  A    between atoms: _42  and  _43
REMARK   17  A    between atoms: _45  and  _47
REMARK   18  A    between atoms: _47  and  _48
REMARK   19  A    between atoms: _47  and  _50
REMARK   20  A    between atoms: _50  and  _51
REMARK   21  A    between atoms: _56  and  _57
REMARK   22  A    between atoms: _59  and  _61
REMARK   23  A    between atoms: _61  and  _62
REMARK   24  A    between atoms: _61  and  _64
REMARK   25  A    between atoms: _64  and  _65
REMARK   26  A    between atoms: _70  and  _71
REMARK   27  A    between atoms: _73  and  _75
REMARK   28  A    between atoms: _75  and  _76
REMARK   29  A    between atoms: _75  and  _78
REMARK   30  A    between atoms: _78  and  _79
REMARK   31  A    between atoms: _82  and  _84
REMARK   32  A    between atoms: _84  and  _85
REMARK   33  A    between atoms: _87  and  _89
REMARK   34  A    between atoms: _89  and  _90
REMARK   35  A    between atoms: _89  and  _92
REMARK   36  A    between atoms: _92  and  _93
REMARK   37  A    between atoms: _98  and  _99
REMARK   38  A    between atoms: _101  and  _103
REMARK   39  A    between atoms: _103  and  _104
REMARK   40  A    between atoms: _103  and  _106
REMARK   41  A    between atoms: _106  and  _107
REMARK   42  A    between atoms: _110  and  _112
REMARK   43  A    between atoms: _112  and  _113
REMARK   44  A    between atoms: _112  and  _115
REMARK   45  A    between atoms: _115  and  _116
REMARK   46  A    between atoms: _116  and  _117
REMARK   47  A    between atoms: _117  and  _118
REMARK   48  A    between atoms: _127  and  _129
REMARK   49  A    between atoms: _129  and  _130
REMARK   50  A    between atoms: _129  and  _132
REMARK   51  A    between atoms: _132  and  _133
REMARK   52  A    between atoms: _136  and  _138
REMARK   53  A    between atoms: _138  and  _139
REMARK   54  A    between atoms: _138  and  _141
REMARK   55  A    between atoms: _141  and  _142
REMARK   56  A    between atoms: _145  and  _147
REMARK   57  A    between atoms: _147  and  _148
REMARK   58  A    between atoms: _147  and  _150
REMARK   59  A    between atoms: _150  and  _151
REMARK   60  A    between atoms: _154  and  _156
REMARK   61  A    between atoms: _156  and  _157
REMARK   62  A    between atoms: _156  and  _159
REMARK   63  A    between atoms: _159  and  _160
REMARK   64  A    between atoms: _163  and  _165
REMARK   65  A    between atoms: _165  and  _166
REMARK   66  A    between atoms: _165  and  _168
REMARK   67  A    between atoms: _168  and  _169
REMARK   68  A    between atoms: _169  and  _170
REMARK   69  A    between atoms: _175  and  _177
REMARK   70  A    between atoms: _177  and  _178
REMARK   71  A    between atoms: _177  and  _180
REMARK   72  A    between atoms: _180  and  _181
REMARK   73  A    between atoms: _181  and  _182
REMARK   74  A    between atoms: _182  and  _183
REMARK   75  A    between atoms: _192  and  _194
REMARK   76  A    between atoms: _194  and  _195
REMARK   77  A    between atoms: _198  and  _200
REMARK   78  A    between atoms: _200  and  _201
REMARK   79  A    between atoms: _200  and  _203
REMARK   80  A    between atoms: _203  and  _204
REMARK   81  A    between atoms: _207  and  _209
REMARK   82  A    between atoms: _209  and  _210
REMARK   83  A    between atoms: _209  and  _212
REMARK   84  A    between atoms: _212  and  _213
REMARK   85  A    between atoms: _216  and  _218
REMARK   86  A    between atoms: _218  and  _219
REMARK   87  A    between atoms: _218  and  _221
REMARK   88  A    between atoms: _221  and  _222
REMARK   89  A    between atoms: _222  and  _223
REMARK   90  A    between atoms: _223  and  _224
REMARK   91  A    between atoms: _233  and  _235
REMARK   92  A    between atoms: _235  and  _236
REMARK   93  A    between atoms: _235  and  _238
REMARK   94  A    between atoms: _241  and  _243
REMARK   95  A    between atoms: _243  and  _244
REMARK   96  A    between atoms: _243  and  _246
REMARK   97  A    between atoms: _246  and  _247
REMARK   98  A    between atoms: _252  and  _253
REMARK   99  A    between atoms: _255  and  _257
REMARK  100  A    between atoms: _257  and  _258
REMARK  101  A    between atoms: _257  and  _260
REMARK  102  A    between atoms: _260  and  _261
REMARK  103  A    between atoms: _263  and  _265
REMARK  104  A    between atoms: _265  and  _266
REMARK  105  A    between atoms: _265  and  _268
REMARK  106  A    between atoms: _268  and  _269
REMARK  107  A    between atoms: _274  and  _276
REMARK  108  A    between atoms: _276  and  _277
REMARK  109  A    between atoms: _276  and  _279
REMARK  110  A    between atoms: _279  and  _280
REMARK  111  A    between atoms: _280  and  _281
REMARK  112  A    between atoms: _284  and  _286
REMARK  113  A    between atoms: _286  and  _287
REMARK  114  A    between atoms: _286  and  _289
REMARK  115  A    between atoms: _289  and  _290
REMARK  116  A    between atoms: _295  and  _296
REMARK  117  A    between atoms: _298  and  _300
REMARK  118  A    between atoms: _300  and  _301
REMARK  119  A    between atoms: _304  and  _306
REMARK  120  A    between atoms: _306  and  _307
REMARK  121  A    between atoms: _306  and  _309
REMARK  122  A    between atoms: _309  and  _310
REMARK  123  A    between atoms: _314  and  _315
REMARK  124  A    between atoms: _320  and  _322
REMARK  125  A    between atoms: _322  and  _323
REMARK  126  A    between atoms: _322  and  _325
REMARK  127  A    between atoms: _325  and  _326
REMARK  128  A    between atoms: _329  and  _331
REMARK  129  A    between atoms: _331  and  _332
REMARK  130  A    between atoms: _331  and  _334
REMARK  131  A    between atoms: _334  and  _335
REMARK  132  A    between atoms: _335  and  _336
REMARK  133  A    between atoms: _341  and  _343
REMARK  134  A    between atoms: _343  and  _344
REMARK  135  A    between atoms: _343  and  _346
REMARK  136  A    between atoms: _346  and  _347
REMARK  137  A    between atoms: _350  and  _352
REMARK  138  A    between atoms: _352  and  _353
REMARK  139  A    between atoms: _352  and  _355
REMARK  140  A    between atoms: _355  and  _356
REMARK  141  A    between atoms: _362  and  _364
REMARK  142  A    between atoms: _364  and  _365
REMARK  143  A    between atoms: _364  and  _367
REMARK  144  A    between atoms: _367  and  _368
REMARK  145  A    between atoms: _371  and  _373
REMARK  146  A    between atoms: _373  and  _374
REMARK  147  A    between atoms: _377  and  _379
REMARK  148  A    between atoms: _379  and  _380
REMARK  149  A    between atoms: _379  and  _382
REMARK  150  A    between atoms: _382  and  _383
REMARK  151  A    between atoms: _393  and  _395
REMARK  152  A    between atoms: _395  and  _396
REMARK  153  A    between atoms: _395  and  _398
REMARK  154  A    between atoms: _398  and  _399
REMARK  155  A    between atoms: _401  and  _403
REMARK  156  A    between atoms: _403  and  _404
REMARK  157  A    between atoms: _403  and  _406
REMARK  158  A    between atoms: _406  and  _407
REMARK  159  A    between atoms: _412  and  _413
REMARK  160  A    between atoms: _415  and  _417
REMARK  161  A    between atoms: _417  and  _418
REMARK  162  A    between atoms: _417  and  _420
REMARK  163  A    between atoms: _420  and  _421
REMARK  164  A    between atoms: _426  and  _427
REMARK  165  A    between atoms: _429  and  _431
REMARK  166  A    between atoms: _431  and  _432
REMARK  167  A    between atoms: _431  and  _434
REMARK  168  A    between atoms: _434  and  _435
REMARK  169  A    between atoms: _438  and  _440
REMARK  170  A    between atoms: _440  and  _441
REMARK  171  A    between atoms: _443  and  _445
REMARK  172  A    between atoms: _445  and  _446
REMARK  173  A    between atoms: _445  and  _448
REMARK  174  A    between atoms: _448  and  _449
REMARK  175  A    between atoms: _454  and  _455
REMARK  176  A    between atoms: _457  and  _459
REMARK  177  A    between atoms: _459  and  _460
REMARK  178  A    between atoms: _459  and  _462
REMARK  179  A    between atoms: _462  and  _463
REMARK  180  A    between atoms: _466  and  _468
REMARK  181  A    between atoms: _468  and  _469
REMARK  182  A    between atoms: _468  and  _471
REMARK  183  A    between atoms: _471  and  _472
REMARK  184  A    between atoms: _472  and  _473
REMARK  185  A    between atoms: _473  and  _474
REMARK  186  A    between atoms: _483  and  _485
REMARK  187  A    between atoms: _485  and  _486
REMARK  188  A    between atoms: _485  and  _488
REMARK  189  A    between atoms: _488  and  _489
REMARK  190  A    between atoms: _492  and  _494
REMARK  191  A    between atoms: _494  and  _495
REMARK  192  A    between atoms: _494  and  _497
REMARK  193  A    between atoms: _497  and  _498
REMARK  194  A    between atoms: _501  and  _503
REMARK  195  A    between atoms: _503  and  _504
REMARK  196  A    between atoms: _503  and  _506
REMARK  197  A    between atoms: _506  and  _507
REMARK  198  A    between atoms: _507  and  _508
REMARK  199  A    between atoms: _508  and  _509
REMARK  200  A    between atoms: _518  and  _520
REMARK  201  A    between atoms: _520  and  _521
REMARK  202  A    between atoms: _520  and  _523
REMARK  203  A    between atoms: _523  and  _524
REMARK  204  A    between atoms: _524  and  _525
REMARK  205  A    between atoms: _530  and  _532
REMARK  206  A    between atoms: _532  and  _533
REMARK  207  A    between atoms: _532  and  _535
REMARK  208  A    between atoms: _535  and  _536
REMARK  209  A    between atoms: _536  and  _537
REMARK  210  A    between atoms: _537  and  _538
REMARK  211  A    between atoms: _547  and  _549
REMARK  212  A    between atoms: _549  and  _550
REMARK  213  A    between atoms: _553  and  _555
REMARK  214  A    between atoms: _555  and  _556
REMARK  215  A    between atoms: _558  and  _560
REMARK  216  A    between atoms: _560  and  _561
REMARK  217  A    between atoms: _560  and  _563
REMARK  218  A    between atoms: _563  and  _564
REMARK  219  A    between atoms: _567  and  _569
REMARK  220  A    between atoms: _569  and  _570
REMARK  221  A    between atoms: _569  and  _572
REMARK  222  A    between atoms: _572  and  _573
REMARK  223  A    between atoms: _573  and  _574
REMARK  224  A    between atoms: _574  and  _575
REMARK  225  A    between atoms: _584  and  _586
REMARK  226  A    between atoms: _586  and  _587
REMARK  227  A    between atoms: _586  and  _589
REMARK  228  A    between atoms: _592  and  _594
REMARK  229  A    between atoms: _594  and  _595
REMARK  230  A    between atoms: _594  and  _597
REMARK  231  A    between atoms: _597  and  _598
REMARK  232  A    between atoms: _603  and  _604
REMARK  233  A    between atoms: _606  and  _608
REMARK  234  A    between atoms: _608  and  _609
REMARK  235  A    between atoms: _608  and  _611
REMARK  236  A    between atoms: _611  and  _612
REMARK  237  A    between atoms: _614  and  _616
REMARK  238  A    between atoms: _616  and  _617
REMARK  239  A    between atoms: _616  and  _619
REMARK  240  A    between atoms: _619  and  _620
REMARK  241  A    between atoms: _625  and  _627
REMARK  242  A    between atoms: _627  and  _628
REMARK  243  A    between atoms: _627  and  _630
REMARK  244  A    between atoms: _630  and  _631
REMARK  245  A    between atoms: _631  and  _632
REMARK  246  A    between atoms: _635  and  _637
REMARK  247  A    between atoms: _637  and  _638
REMARK  248  A    between atoms: _637  and  _640
REMARK  249  A    between atoms: _640  and  _641
REMARK  250  A    between atoms: _646  and  _647
REMARK  251  A    between atoms: _649  and  _651
REMARK  252  A    between atoms: _651  and  _652
REMARK  253  A    between atoms: _655  and  _657
REMARK  254  A    between atoms: _657  and  _658
REMARK  255  A    between atoms: _657  and  _660
REMARK  256  A    between atoms: _660  and  _661
REMARK  257  A    between atoms: _665  and  _666
REMARK  258  A    between atoms: _671  and  _673
REMARK  259  A    between atoms: _673  and  _674
REMARK  260  A    between atoms: _673  and  _676
REMARK  261  A    between atoms: _676  and  _677
REMARK  262  A    between atoms: _680  and  _682
REMARK  263  A    between atoms: _682  and  _683
REMARK  264  A    between atoms: _682  and  _685
REMARK  265  A    between atoms: _685  and  _686
REMARK  266  A    between atoms: _686  and  _687
REMARK  267  A    between atoms: _692  and  _694
REMARK  268  A    between atoms: _694  and  _695
REMARK  269  A    between atoms: _694  and  _697
REMARK  270  A    between atoms: _697  and  _698
REMARK  271  A    between atoms: _701  and  _703
REMARK  272  A    between atoms: _703  and  _704
REMARK  273  A    between atoms: _703  and  _706
REMARK  274  A    between atoms: _706  and  _707
REMARK  275  A    between atoms: _710  and  _712
REMARK  276  A    between atoms: _712  and  _713
REMARK  277  A    between atoms: _712  and  _715
REMARK  278  A    between atoms: _715  and  _716
REMARK                            x       y       z     vdW  Elec       q    Type
REMARK                         _______ _______ _______ _____ _____    ______ ____
ROOT
ATOM      1  CB  GLN A   1      51.816  15.424 -25.398  0.00  0.00    +0.035 C 
ENDROOT
BRANCH   1   2
ATOM      2  CA  GLN A   1      51.116  16.717 -24.978  0.00  0.00    +0.134 C 
BRANCH   2   3
ATOM      3  N   GLN A   1      51.713  17.247 -23.767  0.00  0.00    -0.239 NA
ATOM      4  H   GLN A   1      51.884  16.614 -22.960  0.00  0.00    +0.142 HD
ENDBRANCH   2   3
BRANCH   2   5
ATOM      5  C   GLN A   1      49.660  16.435 -24.648  0.00  0.00    +0.224 C 
ATOM      6  O   GLN A   1      49.376  15.785 -23.639  0.00  0.00    -0.287 OA
ENDBRANCH   2   5
ENDBRANCH   1   2
BRANCH   1   7
ATOM      7  CG  GLN A   1      51.135  14.741 -26.570  0.00  0.00    +0.087 C 
BRANCH   7   8
ATOM      8  CD  GLN A   1      51.931  13.582 -27.130  0.00  0.00    +0.219 C 
ATOM      9  OE1 GLN A   1      53.108  13.419 -26.827  0.00  0.00    -0.275 OA
ATOM     10  NE2 GLN A   1      51.289  12.771 -27.957  0.00  0.00    -0.329 N 
ATOM     11 HE21 GLN A   1      50.290  12.947 -28.187  0.00  0.00    +0.145 HD
ATOM     12 HE22 GLN A   1      51.784  11.958 -28.377  0.00  0.00    +0.145 HD
ENDBRANCH   7   8
ENDBRANCH   1   7
TORSDOF 5
REMARK  Name = ../refined-set-2016/4ksy/4ksy_pocket.pdb
REMARK  278 active torsions:
REMARK  status: ('A' for Active; 'I' for Inactive)
REMARK    1  A    between atoms: _1  and  _3
REMARK    2  A    between atoms: _3  and  _4
REMARK    3  A    between atoms: _6  and  _8
REMARK    4  A    between atoms: _8  and  _9
REMARK    5  A    between atoms: _8  and  _11
REMARK    6  A    between atoms: _11  and  _12
REMARK    7  A    between atoms: _15  and  _17
REMARK    8  A    between atoms: _17  and  _18
REMARK    9  A    between atoms: _21  and  _23
REMARK   10  A    between atoms: _23  and  _24
REMARK   11  A    between atoms: _23  and  _26
REMARK   12  A    between atoms: _26  and  _27
REMARK   13  A    between atoms: _37  and  _39
REMARK   14  A    between atoms: _39  and  _40
REMARK   15  A    between atoms: _39  and  _42
REMARK   16  A    between atoms: _42  and  _43
REMARK   17  A    between atoms: _45  and  _47
REMARK   18  A    between atoms: _47  and  _48
REMARK   19  A    between atoms: _47  and  _50
REMARK   20  A    between atoms: _50  and  _51
REMARK   21  A    between atoms: _56  and  _57
REMARK   22  A    between atoms: _59  and  _61
REMARK   23  A    between atoms: _61  and  _62
REMARK   24  A    between atoms: _61  and  _64
REMARK   25  A    between atoms: _64  and  _65
REMARK   26  A    between atoms: _70  and  _71
REMARK   27  A    between atoms: _73  and  _75
REMARK   28  A    between atoms: _75  and  _76
REMARK   29  A    between atoms: _75  and  _78
REMARK   30  A    between atoms: _78  and  _79
REMARK   31  A    between atoms: _82  and  _84
REMARK   32  A    between atoms: _84  and  _85
REMARK   33  A    between atoms: _87  and  _89
REMARK   34  A    between atoms: _89  and  _90
REMARK   35  A    between atoms: _89  and  _92
REMARK   36  A    between atoms: _92  and  _93
REMARK   37  A    between atoms: _98  and  _99
REMARK   38  A    between atoms: _101  and  _103
REMARK   39  A    between atoms: _103  and  _104
REMARK   40  A    between atoms: _103  and  _106
REMARK   41  A    between atoms: _106  and  _107
REMARK   42  A    between atoms: _110  and  _112
REMARK   43  A    between atoms: _112  and  _113
REMARK   44  A    between atoms: _112  and  _115
REMARK   45  A    between atoms: _115  and  _116
REMARK   46  A    between atoms: _116  and  _117
REMARK   47  A    between atoms: _117  and  _118
REMARK   48  A    between atoms: _127  and  _129
REMARK   49  A    between atoms: _129  and  _130
REMARK   50  A    between atoms: _129  and  _132
REMARK   51  A    between atoms: _132  and  _133
REMARK   52  A    between atoms: _136  and  _138
REMARK   53  A    between atoms: _138  and  _139
REMARK   54  A    between atoms: _138  and  _141
REMARK   55  A    between atoms: _141  and  _142
REMARK   56  A    between atoms: _145  and  _147
REMARK   57  A    between atoms: _147  and  _148
REMARK   58  A    between atoms: _147  and  _150
REMARK   59  A    between atoms: _150  and  _151
REMARK   60  A    between atoms: _154  and  _156
REMARK   61  A    between atoms: _156  and  _157
REMARK   62  A    between atoms: _156  and  _159
REMARK   63  A    between atoms: _159  and  _160
REMARK   64  A    between atoms: _163  and  _165
REMARK   65  A    between atoms: _165  and  _166
REMARK   66  A    between atoms: _165  and  _168
REMARK   67  A    between atoms: _168  and  _169
REMARK   68  A    between atoms: _169  and  _170
REMARK   69  A    between atoms: _175  and  _177
REMARK   70  A    between atoms: _177  and  _178
REMARK   71  A    between atoms: _177  and  _180
REMARK   72  A    between atoms: _180  and  _181
REMARK   73  A    between atoms: _181  and  _182
REMARK   74  A    between atoms: _182  and  _183
REMARK   75  A    between atoms: _192  and  _194
REMARK   76  A    between atoms: _194  and  _195
REMARK   77  A    between atoms: _198  and  _200
REMARK   78  A    between atoms: _200  and  _201
REMARK   79  A    between atoms: _200  and  _203
REMARK   80  A    between atoms: _203  and  _204
REMARK   81  A    between atoms: _207  and  _209
REMARK   82  A    between atoms: _209  and  _210
REMARK   83  A    between atoms: _209  and  _212
REMARK   84  A    between atoms: _212  and  _213
REMARK   85  A    between atoms: _216  and  _218
REMARK   86  A    between atoms: _218  and  _219
REMARK   87  A    between atoms: _218  and  _221
REMARK   88  A    between atoms: _221  and  _222
REMARK   89  A    between atoms: _222  and  _223
REMARK   90  A    between atoms: _223  and  _224
REMARK   91  A    between atoms: _233  and  _235
REMARK   92  A    between atoms: _235  and  _236
REMARK   93  A    between atoms: _235  and  _238
REMARK   94  A    between atoms: _241  and  _243
REMARK   95  A    between atoms: _243  and  _244
REMARK   96  A    between atoms: _243  and  _246
REMARK   97  A    between atoms: _246  and  _247
REMARK   98  A    between atoms: _252  and  _253
REMARK   99  A    between atoms: _255  and  _257
REMARK  100  A    between atoms: _257  and  _258
REMARK  101  A    between atoms: _257  and  _260
REMARK  102  A    between atoms: _260  and  _261
REMARK  103  A    between atoms: _263  and  _265
REMARK  104  A    between atoms: _265  and  _266
REMARK  105  A    between atoms: _265  and  _268
REMARK  106  A    between atoms: _268  and  _269
REMARK  107  A    between atoms: _274  and  _276
REMARK  108  A    between atoms: _276  and  _277
REMARK  109  A    between atoms: _276  and  _279
REMARK  110  A    between atoms: _279  and  _280
REMARK  111  A    between atoms: _280  and  _281
REMARK  112  A    between atoms: _284  and  _286
REMARK  113  A    between atoms: _286  and  _287
REMARK  114  A    between atoms: _286  and  _289
REMARK  115  A    between atoms: _289  and  _290
REMARK  116  A    between atoms: _295  and  _296
REMARK  117  A    between atoms: _298  and  _300
REMARK  118  A    between atoms: _300  and  _301
REMARK  119  A    between atoms: _304  and  _306
REMARK  120  A    between atoms: _306  and  _307
REMARK  121  A    between atoms: _306  and  _309
REMARK  122  A    between atoms: _309  and  _310
REMARK  123  A    between atoms: _314  and  _315
REMARK  124  A    between atoms: _320  and  _322
REMARK  125  A    between atoms: _322  and  _323
REMARK  126  A    between atoms: _322  and  _325
REMARK  127  A    between atoms: _325  and  _326
REMARK  128  A    between atoms: _329  and  _331
REMARK  129  A    between atoms: _331  and  _332
REMARK  130  A    between atoms: _331  and  _334
REMARK  131  A    between atoms: _334  and  _335
REMARK  132  A    between atoms: _335  and  _336
REMARK  133  A    between atoms: _341  and  _343
REMARK  134  A    between atoms: _343  and  _344
REMARK  135  A    between atoms: _343  and  _346
REMARK  136  A    between atoms: _346  and  _347
REMARK  137  A    between atoms: _350  and  _352
REMARK  138  A    between atoms: _352  and  _353
REMARK  139  A    between atoms: _352  and  _355
REMARK  140  A    between atoms: _355  and  _356
REMARK  141  A    between atoms: _362  and  _364
REMARK  142  A    between atoms: _364  and  _365
REMARK  143  A    between atoms: _364  and  _367
REMARK  144  A    between atoms: _367  and  _368
REMARK  145  A    between atoms: _371  and  _373
REMARK  146  A    between atoms: _373  and  _374
REMARK  147  A    between atoms: _377  and  _379
REMARK  148  A    between atoms: _379  and  _380
REMARK  149  A    between atoms: _379  and  _382
REMARK  150  A    between atoms: _382  and  _383
REMARK  151  A    between atoms: _393  and  _395
REMARK  152  A    between atoms: _395  and  _396
REMARK  153  A    between atoms: _395  and  _398
REMARK  154  A    between atoms: _398  and  _399
REMARK  155  A    between atoms: _401  and  _403
REMARK  156  A    between atoms: _403  and  _404
REMARK  157  A    between atoms: _403  and  _406
REMARK  158  A    between atoms: _406  and  _407
REMARK  159  A    between atoms: _412  and  _413
REMARK  160  A    between atoms: _415  and  _417
REMARK  161  A    between atoms: _417  and  _418
REMARK  162  A    between atoms: _417  and  _420
REMARK  163  A    between atoms: _420  and  _421
REMARK  164  A    between atoms: _426  and  _427
REMARK  165  A    between atoms: _429  and  _431
REMARK  166  A    between atoms: _431  and  _432
REMARK  167  A    between atoms: _431  and  _434
REMARK  168  A    between atoms: _434  and  _435
REMARK  169  A    between atoms: _438  and  _440
REMARK  170  A    between atoms: _440  and  _441
REMARK  171  A    between atoms: _443  and  _445
REMARK  172  A    between atoms: _445  and  _446
REMARK  173  A    between atoms: _445  and  _448
REMARK  174  A    between atoms: _448  and  _449
REMARK  175  A    between atoms: _454  and  _455
REMARK  176  A    between atoms: _457  and  _459
REMARK  177  A    between atoms: _459  and  _460
REMARK  178  A    between atoms: _459  and  _462
REMARK  179  A    between atoms: _462  and  _463
REMARK  180  A    between atoms: _466  and  _468
REMARK  181  A    between atoms: _468  and  _469
REMARK  182  A    between atoms: _468  and  _471
REMARK  183  A    between atoms: _471  and  _472
REMARK  184  A    between atoms: _472  and  _473
REMARK  185  A    between atoms: _473  and  _474
REMARK  186  A    between atoms: _483  and  _485
REMARK  187  A    between atoms: _485  and  _486
REMARK  188  A    between atoms: _485  and  _488
REMARK  189  A    between atoms: _488  and  _489
REMARK  190  A    between atoms: _492  and  _494
REMARK  191  A    between atoms: _494  and  _495
REMARK  192  A    between atoms: _494  and  _497
REMARK  193  A    between atoms: _497  and  _498
REMARK  194  A    between atoms: _501  and  _503
REMARK  195  A    between atoms: _503  and  _504
REMARK  196  A    between atoms: _503  and  _506
REMARK  197  A    between atoms: _506  and  _507
REMARK  198  A    between atoms: _507  and  _508
REMARK  199  A    between atoms: _508  and  _509
REMARK  200  A    between atoms: _518  and  _520
REMARK  201  A    between atoms: _520  and  _521
REMARK  202  A    between atoms: _520  and  _523
REMARK  203  A    between atoms: _523  and  _524
REMARK  204  A    between atoms: _524  and  _525
REMARK  205  A    between atoms: _530  and  _532
REMARK  206  A    between atoms: _532  and  _533
REMARK  207  A    between atoms: _532  and  _535
REMARK  208  A    between atoms: _535  and  _536
REMARK  209  A    between atoms: _536  and  _537
REMARK  210  A    between atoms: _537  and  _538
REMARK  211  A    between atoms: _547  and  _549
REMARK  212  A    between atoms: _549  and  _550
REMARK  213  A    between atoms: _553  and  _555
REMARK  214  A    between atoms: _555  and  _556
REMARK  215  A    between atoms: _558  and  _560
REMARK  216  A    between atoms: _560  and  _561
REMARK  217  A    between atoms: _560  and  _563
REMARK  218  A    between atoms: _563  and  _564
REMARK  219  A    between atoms: _567  and  _569
REMARK  220  A    between atoms: _569  and  _570
REMARK  221  A    between atoms: _569  and  _572
REMARK  222  A    between atoms: _572  and  _573
REMARK  223  A    between atoms: _573  and  _574
REMARK  224  A    between atoms: _574  and  _575
REMARK  225  A    between atoms: _584  and  _586
REMARK  226  A    between atoms: _586  and  _587
REMARK  227  A    between atoms: _586  and  _589
REMARK  228  A    between atoms: _592  and  _594
REMARK  229  A    between atoms: _594  and  _595
REMARK  230  A    between atoms: _594  and  _597
REMARK  231  A    between atoms: _597  and  _598
REMARK  232  A    between atoms: _603  and  _604
REMARK  233  A    between atoms: _606  and  _608
REMARK  234  A    between atoms: _608  and  _609
REMARK  235  A    between atoms: _608  and  _611
REMARK  236  A    between atoms: _611  and  _612
REMARK  237  A    between atoms: _614  and  _616
REMARK  238  A    between atoms: _616  and  _617
REMARK  239  A    between atoms: _616  and  _619
REMARK  240  A    between atoms: _619  and  _620
REMARK  241  A    between atoms: _625  and  _627
REMARK  242  A    between atoms: _627  and  _628
REMARK  243  A    between atoms: _627  and  _630
REMARK  244  A    between atoms: _630  and  _631
REMARK  245  A    between atoms: _631  and  _632
REMARK  246  A    between atoms: _635  and  _637
REMARK  247  A    between atoms: _637  and  _638
REMARK  248  A    between atoms: _637  and  _640
REMARK  249  A    between atoms: _640  and  _641
REMARK  250  A    between atoms: _646  and  _647
REMARK  251  A    between atoms: _649  and  _651
REMARK  252  A    between atoms: _651  and  _652
REMARK  253  A    between atoms: _655  and  _657
REMARK  254  A    between atoms: _657  and  _658
REMARK  255  A    between atoms: _657  and  _660
REMARK  256  A    between atoms: _660  and  _661
REMARK  257  A    between atoms: _665  and  _666
REMARK  258  A    between atoms: _671  and  _673
REMARK  259  A    between atoms: _673  and  _674
REMARK  260  A    between atoms: _673  and  _676
REMARK  261  A    between atoms: _676  and  _677
REMARK  262  A    between atoms: _680  and  _682
REMARK  263  A    between atoms: _682  and  _683
REMARK  264  A    between atoms: _682  and  _685
REMARK  265  A    between atoms: _685  and  _686
REMARK  266  A    between atoms: _686  and  _687
REMARK  267  A    between atoms: _692  and  _694
REMARK  268  A    between atoms: _694  and  _695
REMARK  269  A    between atoms: _694  and  _697
REMARK  270  A    between atoms: _697  and  _698
REMARK  271  A    between atoms: _701  and  _703
REMARK  272  A    between atoms: _703  and  _704
REMARK  273  A    between atoms: _703  and  _706
REMARK  274  A    between atoms: _706  and  _707
REMARK  275  A    between atoms: _710  and  _712
REMARK  276  A    between atoms: _712  and  _713
REMARK  277  A    between atoms: _712  and  _715
REMARK  278  A    between atoms: _715  and  _716
REMARK                            x       y       z     vdW  Elec       q    Type
REMARK                         _______ _______ _______ _____ _____    ______ ____
ROOT
ATOM      1  C   ARG A   1      40.004   9.349 -25.309  0.00  0.00    +0.238 C 
ATOM      2  O   ARG A   1      39.707   9.670 -24.160  0.00  0.00    -0.274 OA
ATOM      3  N   ALA A   2      39.375   8.409 -26.001  0.00  0.00    -0.297 N 
ATOM      4  H   ALA A   2      39.657   8.241 -26.988  0.00  0.00    +0.150 HD
ENDROOT
BRANCH   3   5
ATOM      5  CA  ALA A   2      38.296   7.596 -25.427  0.00  0.00    +0.149 C 
ATOM      6  CB  ALA A   2      38.884   6.602 -24.397  0.00  0.00    +0.031 C 
BRANCH   5   7
ATOM      7  C   ALA A   2      37.227   8.463 -24.783  0.00  0.00    +0.241 C 
ATOM      8  O   ALA A   2      36.715   8.144 -23.701  0.00  0.00    -0.273 OA
ATOM      9  N   GLY A   3      36.892   9.572 -25.436  0.00  0.00    -0.295 N 
ATOM     10  H   GLY A   3      37.398   9.833 -26.306  0.00  0.00    +0.150 HD
BRANCH   9  11
ATOM     11  CA  GLY A   3      35.820  10.422 -24.937  0.00  0.00    +0.176 C 
BRANCH  11  12
ATOM     12  C   GLY A   3      36.305  11.524 -24.014  0.00  0.00    +0.243 C 
ATOM     13  O   GLY A   3      35.531  12.387 -23.582  0.00  0.00    -0.273 OA
ATOM     14  N   ILE A   4      37.587  11.496 -23.689  0.00  0.00    -0.298 N 
ATOM     15  H   ILE A   4      38.190  10.724 -24.039  0.00  0.00    +0.150 HD
BRANCH  14  16
ATOM     16  CA  ILE A   4      38.161  12.534 -22.847  0.00  0.00    +0.137 C 
BRANCH  16  17
ATOM     17  CB  ILE A   4      39.296  12.004 -21.957  0.00  0.00    +0.026 C 
ATOM     18  CG2 ILE A   4      39.897  13.141 -21.127  0.00  0.00    +0.002 C 
BRANCH  17  19
ATOM     19  CG1 ILE A   4      38.797  10.866 -21.058  0.00  0.00    +0.002 C 
ATOM     20  CD1 ILE A   4      37.739  11.293 -20.113  0.00  0.00    +0.000 C 
ENDBRANCH  17  19
ENDBRANCH  16  17
BRANCH  16  21
ATOM     21  C   ILE A   4      38.741  13.614 -23.738  0.00  0.00    +0.227 C 
ATOM     22  O   ILE A   4      39.718  13.385 -24.444  0.00  0.00    -0.286 OA
ENDBRANCH  16  21
ENDBRANCH  14  16
ENDBRANCH  11  12
ENDBRANCH   9  11
ENDBRANCH   5   7
ENDBRANCH   3   5
BRANCH   1  23
ATOM     23  CA  ARG A   1      41.189  10.024 -25.984  0.00  0.00    +0.145 C 
BRANCH  23  24
ATOM     24  N   ARG A   1      40.954  11.451 -26.209  0.00  0.00    -0.238 NA
ATOM     25  H   ARG A   1      40.410  11.989 -25.504  0.00  0.00    +0.142 HD
ENDBRANCH  23  24
BRANCH  23  26
ATOM     26  CB  ARG A   1      42.400   9.826 -25.071  0.00  0.00    +0.030 C 
BRANCH  26  27
ATOM     27  CG  ARG A   1      43.719  10.319 -25.624  0.00  0.00    +0.045 C 
BRANCH  27  28
ATOM     28  CD  ARG A   1      44.433   9.229 -26.407  0.00  0.00    +0.174 C 
BRANCH  28  29
ATOM     29  NE  ARG A   1      44.711   8.064 -25.573  0.00  0.00    -0.265 N 
ATOM     30  HE  ARG A   1      45.275   8.207 -24.711  0.00  0.00    +0.259 HD
ATOM     31  CZ  ARG A   1      44.290   6.830 -25.842  0.00  0.00    +0.342 C 
ATOM     32  NH2 ARG A   1      44.590   5.821 -25.023  0.00  0.00    -0.292 N 
ATOM     33 HH21 ARG A   1      45.156   5.996 -24.168  0.00  0.00    +0.255 HD
ATOM     34 HH22 ARG A   1      44.258   4.859 -25.239  0.00  0.00    +0.255 HD
ATOM     35  NH1 ARG A   1      43.593   6.597 -26.942  0.00  0.00    -0.292 N 
ATOM     36 HH11 ARG A   1      43.263   5.634 -27.154  0.00  0.00    +0.255 HD
ATOM     37 HH12 ARG A   1      43.375   7.377 -27.594  0.00  0.00    +0.255 HD
ENDBRANCH  28  29
ENDBRANCH  27  28
ENDBRANCH  26  27
ENDBRANCH  23  26
ENDBRANCH   1  23
TORSDOF 14
REMARK  Name = ../refined-set-2016/4ksy/4ksy_pocket.pdb
REMARK  278 active torsions:
REMARK  status: ('A' for Active; 'I' for Inactive)
REMARK    1  A    between atoms: _1  and  _3
REMARK    2  A    between atoms: _3  and  _4
REMARK    3  A    between atoms: _6  and  _8
REMARK    4  A    between atoms: _8  and  _9
REMARK    5  A    between atoms: _8  and  _11
REMARK    6  A    between atoms: _11  and  _12
REMARK    7  A    between atoms: _15  and  _17
REMARK    8  A    between atoms: _17  and  _18
REMARK    9  A    between atoms: _21  and  _23
REMARK   10  A    between atoms: _23  and  _24
REMARK   11  A    between atoms: _23  and  _26
REMARK   12  A    between atoms: _26  and  _27
REMARK   13  A    between atoms: _37  and  _39
REMARK   14  A    between atoms: _39  and  _40
REMARK   15  A    between atoms: _39  and  _42
REMARK   16  A    between atoms: _42  and  _43
REMARK   17  A    between atoms: _45  and  _47
REMARK   18  A    between atoms: _47  and  _48
REMARK   19  A    between atoms: _47  and  _50
REMARK   20  A    between atoms: _50  and  _51
REMARK   21  A    between atoms: _56  and  _57
REMARK   22  A    between atoms: _59  and  _61
REMARK   23  A    between atoms: _61  and  _62
REMARK   24  A    between atoms: _61  and  _64
REMARK   25  A    between atoms: _64  and  _65
REMARK   26  A    between atoms: _70  and  _71
REMARK   27  A    between atoms: _73  and  _75
REMARK   28  A    between atoms: _75  and  _76
REMARK   29  A    between atoms: _75  and  _78
REMARK   30  A    between atoms: _78  and  _79
REMARK   31  A    between atoms: _82  and  _84
REMARK   32  A    between atoms: _84  and  _85
REMARK   33  A    between atoms: _87  and  _89
REMARK   34  A    between atoms: _89  and  _90
REMARK   35  A    between atoms: _89  and  _92
REMARK   36  A    between atoms: _92  and  _93
REMARK   37  A    between atoms: _98  and  _99
REMARK   38  A    between atoms: _101  and  _103
REMARK   39  A    between atoms: _103  and  _104
REMARK   40  A    between atoms: _103  and  _106
REMARK   41  A    between atoms: _106  and  _107
REMARK   42  A    between atoms: _110  and  _112
REMARK   43  A    between atoms: _112  and  _113
REMARK   44  A    between atoms: _112  and  _115
REMARK   45  A    between atoms: _115  and  _116
REMARK   46  A    between atoms: _116  and  _117
REMARK   47  A    between atoms: _117  and  _118
REMARK   48  A    between atoms: _127  and  _129
REMARK   49  A    between atoms: _129  and  _130
REMARK   50  A    between atoms: _129  and  _132
REMARK   51  A    between atoms: _132  and  _133
REMARK   52  A    between atoms: _136  and  _138
REMARK   53  A    between atoms: _138  and  _139
REMARK   54  A    between atoms: _138  and  _141
REMARK   55  A    between atoms: _141  and  _142
REMARK   56  A    between atoms: _145  and  _147
REMARK   57  A    between atoms: _147  and  _148
REMARK   58  A    between atoms: _147  and  _150
REMARK   59  A    between atoms: _150  and  _151
REMARK   60  A    between atoms: _154  and  _156
REMARK   61  A    between atoms: _156  and  _157
REMARK   62  A    between atoms: _156  and  _159
REMARK   63  A    between atoms: _159  and  _160
REMARK   64  A    between atoms: _163  and  _165
REMARK   65  A    between atoms: _165  and  _166
REMARK   66  A    between atoms: _165  and  _168
REMARK   67  A    between atoms: _168  and  _169
REMARK   68  A    between atoms: _169  and  _170
REMARK   69  A    between atoms: _175  and  _177
REMARK   70  A    between atoms: _177  and  _178
REMARK   71  A    between atoms: _177  and  _180
REMARK   72  A    between atoms: _180  and  _181
REMARK   73  A    between atoms: _181  and  _182
REMARK   74  A    between atoms: _182  and  _183
REMARK   75  A    between atoms: _192  and  _194
REMARK   76  A    between atoms: _194  and  _195
REMARK   77  A    between atoms: _198  and  _200
REMARK   78  A    between atoms: _200  and  _201
REMARK   79  A    between atoms: _200  and  _203
REMARK   80  A    between atoms: _203  and  _204
REMARK   81  A    between atoms: _207  and  _209
REMARK   82  A    between atoms: _209  and  _210
REMARK   83  A    between atoms: _209  and  _212
REMARK   84  A    between atoms: _212  and  _213
REMARK   85  A    between atoms: _216  and  _218
REMARK   86  A    between atoms: _218  and  _219
REMARK   87  A    between atoms: _218  and  _221
REMARK   88  A    between atoms: _221  and  _222
REMARK   89  A    between atoms: _222  and  _223
REMARK   90  A    between atoms: _223  and  _224
REMARK   91  A    between atoms: _233  and  _235
REMARK   92  A    between atoms: _235  and  _236
REMARK   93  A    between atoms: _235  and  _238
REMARK   94  A    between atoms: _241  and  _243
REMARK   95  A    between atoms: _243  and  _244
REMARK   96  A    between atoms: _243  and  _246
REMARK   97  A    between atoms: _246  and  _247
REMARK   98  A    between atoms: _252  and  _253
REMARK   99  A    between atoms: _255  and  _257
REMARK  100  A    between atoms: _257  and  _258
REMARK  101  A    between atoms: _257  and  _260
REMARK  102  A    between atoms: _260  and  _261
REMARK  103  A    between atoms: _263  and  _265
REMARK  104  A    between atoms: _265  and  _266
REMARK  105  A    between atoms: _265  and  _268
REMARK  106  A    between atoms: _268  and  _269
REMARK  107  A    between atoms: _274  and  _276
REMARK  108  A    between atoms: _276  and  _277
REMARK  109  A    between atoms: _276  and  _279
REMARK  110  A    between atoms: _279  and  _280
REMARK  111  A    between atoms: _280  and  _281
REMARK  112  A    between atoms: _284  and  _286
REMARK  113  A    between atoms: _286  and  _287
REMARK  114  A    between atoms: _286  and  _289
REMARK  115  A    between atoms: _289  and  _290
REMARK  116  A    between atoms: _295  and  _296
REMARK  117  A    between atoms: _298  and  _300
REMARK  118  A    between atoms: _300  and  _301
REMARK  119  A    between atoms: _304  and  _306
REMARK  120  A    between atoms: _306  and  _307
REMARK  121  A    between atoms: _306  and  _309
REMARK  122  A    between atoms: _309  and  _310
REMARK  123  A    between atoms: _314  and  _315
REMARK  124  A    between atoms: _320  and  _322
REMARK  125  A    between atoms: _322  and  _323
REMARK  126  A    between atoms: _322  and  _325
REMARK  127  A    between atoms: _325  and  _326
REMARK  128  A    between atoms: _329  and  _331
REMARK  129  A    between atoms: _331  and  _332
REMARK  130  A    between atoms: _331  and  _334
REMARK  131  A    between atoms: _334  and  _335
REMARK  132  A    between atoms: _335  and  _336
REMARK  133  A    between atoms: _341  and  _343
REMARK  134  A    between atoms: _343  and  _344
REMARK  135  A    between atoms: _343  and  _346
REMARK  136  A    between atoms: _346  and  _347
REMARK  137  A    between atoms: _350  and  _352
REMARK  138  A    between atoms: _352  and  _353
REMARK  139  A    between atoms: _352  and  _355
REMARK  140  A    between atoms: _355  and  _356
REMARK  141  A    between atoms: _362  and  _364
REMARK  142  A    between atoms: _364  and  _365
REMARK  143  A    between atoms: _364  and  _367
REMARK  144  A    between atoms: _367  and  _368
REMARK  145  A    between atoms: _371  and  _373
REMARK  146  A    between atoms: _373  and  _374
REMARK  147  A    between atoms: _377  and  _379
REMARK  148  A    between atoms: _379  and  _380
REMARK  149  A    between atoms: _379  and  _382
REMARK  150  A    between atoms: _382  and  _383
REMARK  151  A    between atoms: _393  and  _395
REMARK  152  A    between atoms: _395  and  _396
REMARK  153  A    between atoms: _395  and  _398
REMARK  154  A    between atoms: _398  and  _399
REMARK  155  A    between atoms: _401  and  _403
REMARK  156  A    between atoms: _403  and  _404
REMARK  157  A    between atoms: _403  and  _406
REMARK  158  A    between atoms: _406  and  _407
REMARK  159  A    between atoms: _412  and  _413
REMARK  160  A    between atoms: _415  and  _417
REMARK  161  A    between atoms: _417  and  _418
REMARK  162  A    between atoms: _417  and  _420
REMARK  163  A    between atoms: _420  and  _421
REMARK  164  A    between atoms: _426  and  _427
REMARK  165  A    between atoms: _429  and  _431
REMARK  166  A    between atoms: _431  and  _432
REMARK  167  A    between atoms: _431  and  _434
REMARK  168  A    between atoms: _434  and  _435
REMARK  169  A    between atoms: _438  and  _440
REMARK  170  A    between atoms: _440  and  _441
REMARK  171  A    between atoms: _443  and  _445
REMARK  172  A    between atoms: _445  and  _446
REMARK  173  A    between atoms: _445  and  _448
REMARK  174  A    between atoms: _448  and  _449
REMARK  175  A    between atoms: _454  and  _455
REMARK  176  A    between atoms: _457  and  _459
REMARK  177  A    between atoms: _459  and  _460
REMARK  178  A    between atoms: _459  and  _462
REMARK  179  A    between atoms: _462  and  _463
REMARK  180  A    between atoms: _466  and  _468
REMARK  181  A    between atoms: _468  and  _469
REMARK  182  A    between atoms: _468  and  _471
REMARK  183  A    between atoms: _471  and  _472
REMARK  184  A    between atoms: _472  and  _473
REMARK  185  A    between atoms: _473  and  _474
REMARK  186  A    between atoms: _483  and  _485
REMARK  187  A    between atoms: _485  and  _486
REMARK  188  A    between atoms: _485  and  _488
REMARK  189  A    between atoms: _488  and  _489
REMARK  190  A    between atoms: _492  and  _494
REMARK  191  A    between atoms: _494  and  _495
REMARK  192  A    between atoms: _494  and  _497
REMARK  193  A    between atoms: _497  and  _498
REMARK  194  A    between atoms: _501  and  _503
REMARK  195  A    between atoms: _503  and  _504
REMARK  196  A    between atoms: _503  and  _506
REMARK  197  A    between atoms: _506  and  _507
REMARK  198  A    between atoms: _507  and  _508
REMARK  199  A    between atoms: _508  and  _509
REMARK  200  A    between atoms: _518  and  _520
REMARK  201  A    between atoms: _520  and  _521
REMARK  202  A    between atoms: _520  and  _523
REMARK  203  A    between atoms: _523  and  _524
REMARK  204  A    between atoms: _524  and  _525
REMARK  205  A    between atoms: _530  and  _532
REMARK  206  A    between atoms: _532  and  _533
REMARK  207  A    between atoms: _532  and  _535
REMARK  208  A    between atoms: _535  and  _536
REMARK  209  A    between atoms: _536  and  _537
REMARK  210  A    between atoms: _537  and  _538
REMARK  211  A    between atoms: _547  and  _549
REMARK  212  A    between atoms: _549  and  _550
REMARK  213  A    between atoms: _553  and  _555
REMARK  214  A    between atoms: _555  and  _556
REMARK  215  A    between atoms: _558  and  _560
REMARK  216  A    between atoms: _560  and  _561
REMARK  217  A    between atoms: _560  and  _563
REMARK  218  A    between atoms: _563  and  _564
REMARK  219  A    between atoms: _567  and  _569
REMARK  220  A    between atoms: _569  and  _570
REMARK  221  A    between atoms: _569  and  _572
REMARK  222  A    between atoms: _572  and  _573
REMARK  223  A    between atoms: _573  and  _574
REMARK  224  A    between atoms: _574  and  _575
REMARK  225  A    between atoms: _584  and  _586
REMARK  226  A    between atoms: _586  and  _587
REMARK  227  A    between atoms: _586  and  _589
REMARK  228  A    between atoms: _592  and  _594
REMARK  229  A    between atoms: _594  and  _595
REMARK  230  A    between atoms: _594  and  _597
REMARK  231  A    between atoms: _597  and  _598
REMARK  232  A    between atoms: _603  and  _604
REMARK  233  A    between atoms: _606  and  _608
REMARK  234  A    between atoms: _608  and  _609
REMARK  235  A    between atoms: _608  and  _611
REMARK  236  A    between atoms: _611  and  _612
REMARK  237  A    between atoms: _614  and  _616
REMARK  238  A    between atoms: _616  and  _617
REMARK  239  A    between atoms: _616  and  _619
REMARK  240  A    between atoms: _619  and  _620
REMARK  241  A    between atoms: _625  and  _627
REMARK  242  A    between atoms: _627  and  _628
REMARK  243  A    between atoms: _627  and  _630
REMARK  244  A    between atoms: _630  and  _631
REMARK  245  A    between atoms: _631  and  _632
REMARK  246  A    between atoms: _635  and  _637
REMARK  247  A    between atoms: _637  and  _638
REMARK  248  A    between atoms: _637  and  _640
REMARK  249  A    between atoms: _640  and  _641
REMARK  250  A    between atoms: _646  and  _647
REMARK  251  A    between atoms: _649  and  _651
REMARK  252  A    between atoms: _651  and  _652
REMARK  253  A    between atoms: _655  and  _657
REMARK  254  A    between atoms: _657  and  _658
REMARK  255  A    between atoms: _657  and  _660
REMARK  256  A    between atoms: _660  and  _661
REMARK  257  A    between atoms: _665  and  _666
REMARK  258  A    between atoms: _671  and  _673
REMARK  259  A    between atoms: _673  and  _674
REMARK  260  A    between atoms: _673  and  _676
REMARK  261  A    between atoms: _676  and  _677
REMARK  262  A    between atoms: _680  and  _682
REMARK  263  A    between atoms: _682  and  _683
REMARK  264  A    between atoms: _682  and  _685
REMARK  265  A    between atoms: _685  and  _686
REMARK  266  A    between atoms: _686  and  _687
REMARK  267  A    between atoms: _692  and  _694
REMARK  268  A    between atoms: _694  and  _695
REMARK  269  A    between atoms: _694  and  _697
REMARK  270  A    between atoms: _697  and  _698
REMARK  271  A    between atoms: _701  and  _703
REMARK  272  A    between atoms: _703  and  _704
REMARK  273  A    between atoms: _703  and  _706
REMARK  274  A    between atoms: _706  and  _707
REMARK  275  A    between atoms: _710  and  _712
REMARK  276  A    between atoms: _712  and  _713
REMARK  277  A    between atoms: _712  and  _715
REMARK  278  A    between atoms: _715  and  _716
REMARK                            x       y       z     vdW  Elec       q    Type
REMARK                         _______ _______ _______ _____ _____    ______ ____
ROOT
ATOM      1  CA  TYR A   3      50.379  13.460 -21.032  0.00  0.00    +0.153 C 
ENDROOT
BRANCH   1   2
ATOM      2  C   TYR A   3      51.525  14.390 -20.683  0.00  0.00    +0.241 C 
ATOM      3  N   SER A   4      52.021  14.279 -19.466  0.00  0.00    -0.295 N 
ATOM      4  H   SER A   4      51.640  13.572 -18.805  0.00  0.00    +0.150 HD
ATOM      5  O   TYR A   3      51.936  15.234 -21.483  0.00  0.00    -0.273 OA
BRANCH   3   6
ATOM      6  CA  SER A   4      53.105  15.155 -19.059  0.00  0.00    +0.178 C 
BRANCH   6   7
ATOM      7  C   SER A   4      54.315  14.359 -18.594  0.00  0.00    +0.243 C 
ATOM      8  O   SER A   4      54.193  13.210 -18.165  0.00  0.00    -0.273 OA
ATOM      9  N   ASN A   5      55.488  14.959 -18.727  0.00  0.00    -0.298 N 
ATOM     10  H   ASN A   5      55.531  15.924 -19.112  0.00  0.00    +0.150 HD
BRANCH   9  11
ATOM     11  CA  ASN A   5      56.721  14.282 -18.340  0.00  0.00    +0.146 C 
BRANCH  11  12
ATOM     12  C   ASN A   5      57.595  15.286 -17.645  0.00  0.00    +0.227 C 
ATOM     13  O   ASN A   5      57.543  16.479 -17.960  0.00  0.00    -0.286 OA
ENDBRANCH  11  12
BRANCH  11  14
ATOM     14  CB  ASN A   5      57.456  13.751 -19.565  0.00  0.00    +0.112 C 
BRANCH  14  15
ATOM     15  CG  ASN A   5      56.585  12.841 -20.407  0.00  0.00    +0.222 C 
ATOM     16  ND2 ASN A   5      56.606  11.561 -20.093  0.00  0.00    -0.329 N 
ATOM     17 HD21 ASN A   5      57.206  11.227 -19.312  0.00  0.00    +0.145 HD
ATOM     18 HD22 ASN A   5      56.023  10.885 -20.627  0.00  0.00    +0.145 HD
ATOM     19  OD1 ASN A   5      55.895  13.287 -21.320  0.00  0.00    -0.275 OA
ENDBRANCH  14  15
ENDBRANCH  11  14
ENDBRANCH   9  11
ENDBRANCH   6   7
BRANCH   6  20
ATOM     20  CB  SER A   4      52.631  16.146 -17.994  0.00  0.00    +0.166 C 
BRANCH  20  21
ATOM     21  OG  SER A   4      51.723  15.545 -17.098  0.00  0.00    -0.380 OA
ATOM     22  H   SER A   4      50.933  15.220 -17.599  0.00  0.00    +0.211 HD
ENDBRANCH  20  21
ENDBRANCH   6  20
ENDBRANCH   3   6
ENDBRANCH   1   2
BRANCH   1  25
ATOM     23  C   VAL A   2      48.154  14.332 -20.527  0.00  0.00    +0.241 C 
ATOM     24  O   VAL A   2      48.014  13.577 -19.563  0.00  0.00    -0.273 OA
ATOM     25  N   TYR A   3      49.212  14.296 -21.328  0.00  0.00    -0.297 N 
ATOM     26  H   TYR A   3      49.213  14.878 -22.190  0.00  0.00    +0.150 HD
BRANCH  23  27
ATOM     27  CA  VAL A   2      47.082  15.375 -20.859  0.00  0.00    +0.148 C 
BRANCH  27  29
ATOM     28  C   ARG A   1      45.129  14.660 -22.136  0.00  0.00    +0.238 C 
ATOM     29  N   VAL A   2      45.741  14.800 -20.961  0.00  0.00    -0.297 N 
ATOM     30  H   VAL A   2      45.253  14.493 -20.095  0.00  0.00    +0.150 HD
ATOM     31  O   ARG A   1      45.692  14.872 -23.208  0.00  0.00    -0.274 OA
BRANCH  28  32
ATOM     32  CA  ARG A   1      43.664  14.223 -22.098  0.00  0.00    +0.145 C 
BRANCH  32  33
ATOM     33  N   ARG A   1      42.887  14.977 -23.085  0.00  0.00    -0.238 NA
ATOM     34  H   ARG A   1      42.311  14.479 -23.794  0.00  0.00    +0.142 HD
ENDBRANCH  32  33
BRANCH  32  35
ATOM     35  CB  ARG A   1      43.552  12.721 -22.341  0.00  0.00    +0.030 C 
BRANCH  35  36
ATOM     36  CG  ARG A   1      44.329  11.897 -21.314  0.00  0.00    +0.045 C 
BRANCH  36  37
ATOM     37  CD  ARG A   1      43.949  10.420 -21.347  0.00  0.00    +0.174 C 
BRANCH  37  38
ATOM     38  NE  ARG A   1      44.949   9.621 -20.618  0.00  0.00    -0.265 N 
ATOM     39  HE  ARG A   1      45.746  10.122 -20.176  0.00  0.00    +0.259 HD
ATOM     40  CZ  ARG A   1      44.896   8.302 -20.491  0.00  0.00    +0.342 C 
ATOM     41  NH2 ARG A   1      45.857   7.668 -19.833  0.00  0.00    -0.292 N 
ATOM     42 HH21 ARG A   1      46.646   8.205 -19.420  0.00  0.00    +0.255 HD
ATOM     43 HH22 ARG A   1      45.822   6.634 -19.730  0.00  0.00    +0.255 HD
ATOM     44  NH1 ARG A   1      43.890   7.609 -21.027  0.00  0.00    -0.292 N 
ATOM     45 HH11 ARG A   1      43.857   6.575 -20.922  0.00  0.00    +0.255 HD
ATOM     46 HH12 ARG A   1      43.139   8.103 -21.550  0.00  0.00    +0.255 HD
ENDBRANCH  37  38
ENDBRANCH  36  37
ENDBRANCH  35  36
ENDBRANCH  32  35
ENDBRANCH  28  32
ENDBRANCH  27  29
BRANCH  27  47
ATOM     47  CB  VAL A   2      47.129  16.450 -19.755  0.00  0.00    +0.027 C 
ATOM     48  CG2 VAL A   2      48.528  17.089 -19.686  0.00  0.00    +0.002 C 
ATOM     49  CG1 VAL A   2      46.045  17.512 -19.985  0.00  0.00    +0.002 C 
ENDBRANCH  27  47
ENDBRANCH  23  27
ENDBRANCH   1  25
BRANCH   1  50
ATOM     50  CB  TYR A   3      50.744  12.587 -22.224  0.00  0.00    +0.055 C 
BRANCH  50  51
ATOM     51  CG  TYR A   3      49.600  11.687 -22.621  0.00  0.00    -0.020 A 
ATOM     52  CD2 TYR A   3      49.476  10.425 -22.079  0.00  0.00    -0.001 A 
ATOM     53  CE2 TYR A   3      48.429   9.600 -22.419  0.00  0.00    +0.036 A 
ATOM     54  CZ  TYR A   3      47.471  10.046 -23.313  0.00  0.00    +0.134 A 
ATOM     55  CE1 TYR A   3      47.558  11.295 -23.861  0.00  0.00    +0.036 A 
ATOM     56  CD1 TYR A   3      48.626  12.120 -23.510  0.00  0.00    -0.001 A 
BRANCH  54  57
ATOM     57  OH  TYR A   3      46.437   9.209 -23.643  0.00  0.00    -0.506 OA
ATOM     58  HH  TYR A   3      45.838   9.664 -24.287  0.00  0.00    +0.292 HD
ENDBRANCH  54  57
ENDBRANCH  50  51
ENDBRANCH   1  50
TORSDOF 22
REMARK  Name = ../refined-set-2016/4ksy/4ksy_pocket.pdb
REMARK  278 active torsions:
REMARK  status: ('A' for Active; 'I' for Inactive)
REMARK    1  A    between atoms: _1  and  _3
REMARK    2  A    between atoms: _3  and  _4
REMARK    3  A    between atoms: _6  and  _8
REMARK    4  A    between atoms: _8  and  _9
REMARK    5  A    between atoms: _8  and  _11
REMARK    6  A    between atoms: _11  and  _12
REMARK    7  A    between atoms: _15  and  _17
REMARK    8  A    between atoms: _17  and  _18
REMARK    9  A    between atoms: _21  and  _23
REMARK   10  A    between atoms: _23  and  _24
REMARK   11  A    between atoms: _23  and  _26
REMARK   12  A    between atoms: _26  and  _27
REMARK   13  A    between atoms: _37  and  _39
REMARK   14  A    between atoms: _39  and  _40
REMARK   15  A    between atoms: _39  and  _42
REMARK   16  A    between atoms: _42  and  _43
REMARK   17  A    between atoms: _45  and  _47
REMARK   18  A    between atoms: _47  and  _48
REMARK   19  A    between atoms: _47  and  _50
REMARK   20  A    between atoms: _50  and  _51
REMARK   21  A    between atoms: _56  and  _57
REMARK   22  A    between atoms: _59  and  _61
REMARK   23  A    between atoms: _61  and  _62
REMARK   24  A    between atoms: _61  and  _64
REMARK   25  A    between atoms: _64  and  _65
REMARK   26  A    between atoms: _70  and  _71
REMARK   27  A    between atoms: _73  and  _75
REMARK   28  A    between atoms: _75  and  _76
REMARK   29  A    between atoms: _75  and  _78
REMARK   30  A    between atoms: _78  and  _79
REMARK   31  A    between atoms: _82  and  _84
REMARK   32  A    between atoms: _84  and  _85
REMARK   33  A    between atoms: _87  and  _89
REMARK   34  A    between atoms: _89  and  _90
REMARK   35  A    between atoms: _89  and  _92
REMARK   36  A    between atoms: _92  and  _93
REMARK   37  A    between atoms: _98  and  _99
REMARK   38  A    between atoms: _101  and  _103
REMARK   39  A    between atoms: _103  and  _104
REMARK   40  A    between atoms: _103  and  _106
REMARK   41  A    between atoms: _106  and  _107
REMARK   42  A    between atoms: _110  and  _112
REMARK   43  A    between atoms: _112  and  _113
REMARK   44  A    between atoms: _112  and  _115
REMARK   45  A    between atoms: _115  and  _116
REMARK   46  A    between atoms: _116  and  _117
REMARK   47  A    between atoms: _117  and  _118
REMARK   48  A    between atoms: _127  and  _129
REMARK   49  A    between atoms: _129  and  _130
REMARK   50  A    between atoms: _129  and  _132
REMARK   51  A    between atoms: _132  and  _133
REMARK   52  A    between atoms: _136  and  _138
REMARK   53  A    between atoms: _138  and  _139
REMARK   54  A    between atoms: _138  and  _141
REMARK   55  A    between atoms: _141  and  _142
REMARK   56  A    between atoms: _145  and  _147
REMARK   57  A    between atoms: _147  and  _148
REMARK   58  A    between atoms: _147  and  _150
REMARK   59  A    between atoms: _150  and  _151
REMARK   60  A    between atoms: _154  and  _156
REMARK   61  A    between atoms: _156  and  _157
REMARK   62  A    between atoms: _156  and  _159
REMARK   63  A    between atoms: _159  and  _160
REMARK   64  A    between atoms: _163  and  _165
REMARK   65  A    between atoms: _165  and  _166
REMARK   66  A    between atoms: _165  and  _168
REMARK   67  A    between atoms: _168  and  _169
REMARK   68  A    between atoms: _169  and  _170
REMARK   69  A    between atoms: _175  and  _177
REMARK   70  A    between atoms: _177  and  _178
REMARK   71  A    between atoms: _177  and  _180
REMARK   72  A    between atoms: _180  and  _181
REMARK   73  A    between atoms: _181  and  _182
REMARK   74  A    between atoms: _182  and  _183
REMARK   75  A    between atoms: _192  and  _194
REMARK   76  A    between atoms: _194  and  _195
REMARK   77  A    between atoms: _198  and  _200
REMARK   78  A    between atoms: _200  and  _201
REMARK   79  A    between atoms: _200  and  _203
REMARK   80  A    between atoms: _203  and  _204
REMARK   81  A    between atoms: _207  and  _209
REMARK   82  A    between atoms: _209  and  _210
REMARK   83  A    between atoms: _209  and  _212
REMARK   84  A    between atoms: _212  and  _213
REMARK   85  A    between atoms: _216  and  _218
REMARK   86  A    between atoms: _218  and  _219
REMARK   87  A    between atoms: _218  and  _221
REMARK   88  A    between atoms: _221  and  _222
REMARK   89  A    between atoms: _222  and  _223
REMARK   90  A    between atoms: _223  and  _224
REMARK   91  A    between atoms: _233  and  _235
REMARK   92  A    between atoms: _235  and  _236
REMARK   93  A    between atoms: _235  and  _238
REMARK   94  A    between atoms: _241  and  _243
REMARK   95  A    between atoms: _243  and  _244
REMARK   96  A    between atoms: _243  and  _246
REMARK   97  A    between atoms: _246  and  _247
REMARK   98  A    between atoms: _252  and  _253
REMARK   99  A    between atoms: _255  and  _257
REMARK  100  A    between atoms: _257  and  _258
REMARK  101  A    between atoms: _257  and  _260
REMARK  102  A    between atoms: _260  and  _261
REMARK  103  A    between atoms: _263  and  _265
REMARK  104  A    between atoms: _265  and  _266
REMARK  105  A    between atoms: _265  and  _268
REMARK  106  A    between atoms: _268  and  _269
REMARK  107  A    between atoms: _274  and  _276
REMARK  108  A    between atoms: _276  and  _277
REMARK  109  A    between atoms: _276  and  _279
REMARK  110  A    between atoms: _279  and  _280
REMARK  111  A    between atoms: _280  and  _281
REMARK  112  A    between atoms: _284  and  _286
REMARK  113  A    between atoms: _286  and  _287
REMARK  114  A    between atoms: _286  and  _289
REMARK  115  A    between atoms: _289  and  _290
REMARK  116  A    between atoms: _295  and  _296
REMARK  117  A    between atoms: _298  and  _300
REMARK  118  A    between atoms: _300  and  _301
REMARK  119  A    between atoms: _304  and  _306
REMARK  120  A    between atoms: _306  and  _307
REMARK  121  A    between atoms: _306  and  _309
REMARK  122  A    between atoms: _309  and  _310
REMARK  123  A    between atoms: _314  and  _315
REMARK  124  A    between atoms: _320  and  _322
REMARK  125  A    between atoms: _322  and  _323
REMARK  126  A    between atoms: _322  and  _325
REMARK  127  A    between atoms: _325  and  _326
REMARK  128  A    between atoms: _329  and  _331
REMARK  129  A    between atoms: _331  and  _332
REMARK  130  A    between atoms: _331  and  _334
REMARK  131  A    between atoms: _334  and  _335
REMARK  132  A    between atoms: _335  and  _336
REMARK  133  A    between atoms: _341  and  _343
REMARK  134  A    between atoms: _343  and  _344
REMARK  135  A    between atoms: _343  and  _346
REMARK  136  A    between atoms: _346  and  _347
REMARK  137  A    between atoms: _350  and  _352
REMARK  138  A    between atoms: _352  and  _353
REMARK  139  A    between atoms: _352  and  _355
REMARK  140  A    between atoms: _355  and  _356
REMARK  141  A    between atoms: _362  and  _364
REMARK  142  A    between atoms: _364  and  _365
REMARK  143  A    between atoms: _364  and  _367
REMARK  144  A    between atoms: _367  and  _368
REMARK  145  A    between atoms: _371  and  _373
REMARK  146  A    between atoms: _373  and  _374
REMARK  147  A    between atoms: _377  and  _379
REMARK  148  A    between atoms: _379  and  _380
REMARK  149  A    between atoms: _379  and  _382
REMARK  150  A    between atoms: _382  and  _383
REMARK  151  A    between atoms: _393  and  _395
REMARK  152  A    between atoms: _395  and  _396
REMARK  153  A    between atoms: _395  and  _398
REMARK  154  A    between atoms: _398  and  _399
REMARK  155  A    between atoms: _401  and  _403
REMARK  156  A    between atoms: _403  and  _404
REMARK  157  A    between atoms: _403  and  _406
REMARK  158  A    between atoms: _406  and  _407
REMARK  159  A    between atoms: _412  and  _413
REMARK  160  A    between atoms: _415  and  _417
REMARK  161  A    between atoms: _417  and  _418
REMARK  162  A    between atoms: _417  and  _420
REMARK  163  A    between atoms: _420  and  _421
REMARK  164  A    between atoms: _426  and  _427
REMARK  165  A    between atoms: _429  and  _431
REMARK  166  A    between atoms: _431  and  _432
REMARK  167  A    between atoms: _431  and  _434
REMARK  168  A    between atoms: _434  and  _435
REMARK  169  A    between atoms: _438  and  _440
REMARK  170  A    between atoms: _440  and  _441
REMARK  171  A    between atoms: _443  and  _445
REMARK  172  A    between atoms: _445  and  _446
REMARK  173  A    between atoms: _445  and  _448
REMARK  174  A    between atoms: _448  and  _449
REMARK  175  A    between atoms: _454  and  _455
REMARK  176  A    between atoms: _457  and  _459
REMARK  177  A    between atoms: _459  and  _460
REMARK  178  A    between atoms: _459  and  _462
REMARK  179  A    between atoms: _462  and  _463
REMARK  180  A    between atoms: _466  and  _468
REMARK  181  A    between atoms: _468  and  _469
REMARK  182  A    between atoms: _468  and  _471
REMARK  183  A    between atoms: _471  and  _472
REMARK  184  A    between atoms: _472  and  _473
REMARK  185  A    between atoms: _473  and  _474
REMARK  186  A    between atoms: _483  and  _485
REMARK  187  A    between atoms: _485  and  _486
REMARK  188  A    between atoms: _485  and  _488
REMARK  189  A    between atoms: _488  and  _489
REMARK  190  A    between atoms: _492  and  _494
REMARK  191  A    between atoms: _494  and  _495
REMARK  192  A    between atoms: _494  and  _497
REMARK  193  A    between atoms: _497  and  _498
REMARK  194  A    between atoms: _501  and  _503
REMARK  195  A    between atoms: _503  and  _504
REMARK  196  A    between atoms: _503  and  _506
REMARK  197  A    between atoms: _506  and  _507
REMARK  198  A    between atoms: _507  and  _508
REMARK  199  A    between atoms: _508  and  _509
REMARK  200  A    between atoms: _518  and  _520
REMARK  201  A    between atoms: _520  and  _521
REMARK  202  A    between atoms: _520  and  _523
REMARK  203  A    between atoms: _523  and  _524
REMARK  204  A    between atoms: _524  and  _525
REMARK  205  A    between atoms: _530  and  _532
REMARK  206  A    between atoms: _532  and  _533
REMARK  207  A    between atoms: _532  and  _535
REMARK  208  A    between atoms: _535  and  _536
REMARK  209  A    between atoms: _536  and  _537
REMARK  210  A    between atoms: _537  and  _538
REMARK  211  A    between atoms: _547  and  _549
REMARK  212  A    between atoms: _549  and  _550
REMARK  213  A    between atoms: _553  and  _555
REMARK  214  A    between atoms: _555  and  _556
REMARK  215  A    between atoms: _558  and  _560
REMARK  216  A    between atoms: _560  and  _561
REMARK  217  A    between atoms: _560  and  _563
REMARK  218  A    between atoms: _563  and  _564
REMARK  219  A    between atoms: _567  and  _569
REMARK  220  A    between atoms: _569  and  _570
REMARK  221  A    between atoms: _569  and  _572
REMARK  222  A    between atoms: _572  and  _573
REMARK  223  A    between atoms: _573  and  _574
REMARK  224  A    between atoms: _574  and  _575
REMARK  225  A    between atoms: _584  and  _586
REMARK  226  A    between atoms: _586  and  _587
REMARK  227  A    between atoms: _586  and  _589
REMARK  228  A    between atoms: _592  and  _594
REMARK  229  A    between atoms: _594  and  _595
REMARK  230  A    between atoms: _594  and  _597
REMARK  231  A    between atoms: _597  and  _598
REMARK  232  A    between atoms: _603  and  _604
REMARK  233  A    between atoms: _606  and  _608
REMARK  234  A    between atoms: _608  and  _609
REMARK  235  A    between atoms: _608  and  _611
REMARK  236  A    between atoms: _611  and  _612
REMARK  237  A    between atoms: _614  and  _616
REMARK  238  A    between atoms: _616  and  _617
REMARK  239  A    between atoms: _616  and  _619
REMARK  240  A    between atoms: _619  and  _620
REMARK  241  A    between atoms: _625  and  _627
REMARK  242  A    between atoms: _627  and  _628
REMARK  243  A    between atoms: _627  and  _630
REMARK  244  A    between atoms: _630  and  _631
REMARK  245  A    between atoms: _631  and  _632
REMARK  246  A    between atoms: _635  and  _637
REMARK  247  A    between atoms: _637  and  _638
REMARK  248  A    between atoms: _637  and  _640
REMARK  249  A    between atoms: _640  and  _641
REMARK  250  A    between atoms: _646  and  _647
REMARK  251  A    between atoms: _649  and  _651
REMARK  252  A    between atoms: _651  and  _652
REMARK  253  A    between atoms: _655  and  _657
REMARK  254  A    between atoms: _657  and  _658
REMARK  255  A    between atoms: _657  and  _660
REMARK  256  A    between atoms: _660  and  _661
REMARK  257  A    between atoms: _665  and  _666
REMARK  258  A    between atoms: _671  and  _673
REMARK  259  A    between atoms: _673  and  _674
REMARK  260  A    between atoms: _673  and  _676
REMARK  261  A    between atoms: _676  and  _677
REMARK  262  A    between atoms: _680  and  _682
REMARK  263  A    between atoms: _682  and  _683
REMARK  264  A    between atoms: _682  and  _685
REMARK  265  A    between atoms: _685  and  _686
REMARK  266  A    between atoms: _686  and  _687
REMARK  267  A    between atoms: _692  and  _694
REMARK  268  A    between atoms: _694  and  _695
REMARK  269  A    between atoms: _694  and  _697
REMARK  270  A    between atoms: _697  and  _698
REMARK  271  A    between atoms: _701  and  _703
REMARK  272  A    between atoms: _703  and  _704
REMARK  273  A    between atoms: _703  and  _706
REMARK  274  A    between atoms: _706  and  _707
REMARK  275  A    between atoms: _710  and  _712
REMARK  276  A    between atoms: _712  and  _713
REMARK  277  A    between atoms: _712  and  _715
REMARK  278  A    between atoms: _715  and  _716
REMARK                            x       y       z     vdW  Elec       q    Type
REMARK                         _______ _______ _______ _____ _____    ______ ____
ROOT
ATOM      1  C   THR A   4      52.830   1.638 -13.602  0.00  0.00    +0.246 C 
ATOM      2  O   THR A   4      52.270   1.346 -12.548  0.00  0.00    -0.273 OA
ATOM      3  N   PRO A   5      52.861   0.780 -14.638  0.00  0.00    -0.272 N 
ATOM      4  CA  PRO A   5      52.228  -0.532 -14.413  0.00  0.00    +0.152 C 
ATOM      5  CB  PRO A   5      52.457  -1.261 -15.745  0.00  0.00    +0.031 C 
ATOM      6  CG  PRO A   5      52.543  -0.168 -16.745  0.00  0.00    +0.024 C 
ATOM      7  CD  PRO A   5      53.264   0.936 -16.049  0.00  0.00    +0.094 C 
ENDROOT
BRANCH   4   8
ATOM      8  C   PRO A   5      52.884  -1.351 -13.293  0.00  0.00    +0.241 C 
ATOM      9  O   PRO A   5      52.268  -2.272 -12.768  0.00  0.00    -0.273 OA
ATOM     10  N   LEU A   6      54.119  -1.029 -12.932  0.00  0.00    -0.297 N 
ATOM     11  H   LEU A   6      54.640  -0.277 -13.427  0.00  0.00    +0.150 HD
BRANCH  10  12
ATOM     12  CA  LEU A   6      54.728  -1.755 -11.825  0.00  0.00    +0.149 C 
BRANCH  12  13
ATOM     13  C   LEU A   6      53.945  -1.444 -10.550  0.00  0.00    +0.241 C 
ATOM     14  O   LEU A   6      53.919  -2.244  -9.632  0.00  0.00    -0.273 OA
ATOM     15  N   GLN A   7      53.245  -0.313 -10.520  0.00  0.00    -0.297 N 
ATOM     16  H   GLN A   7      53.305   0.355 -11.314  0.00  0.00    +0.150 HD
BRANCH  15  17
ATOM     17  CA  GLN A   7      52.388  -0.006  -9.369  0.00  0.00    +0.149 C 
BRANCH  17  18
ATOM     18  C   GLN A   7      51.184  -0.925  -9.268  0.00  0.00    +0.241 C 
ATOM     19  O   GLN A   7      50.719  -1.259  -8.169  0.00  0.00    -0.273 OA
ATOM     20  N   THR A   8      50.668  -1.324 -10.414  0.00  0.00    -0.295 N 
ATOM     21  H   THR A   8      51.048  -0.945 -11.305  0.00  0.00    +0.150 HD
BRANCH  20  22
ATOM     22  CA  THR A   8      49.583  -2.279 -10.453  0.00  0.00    +0.176 C 
BRANCH  22  23
ATOM     23  C   THR A   8      50.034  -3.647  -9.972  0.00  0.00    +0.243 C 
ATOM     24  O   THR A   8      49.310  -4.301  -9.226  0.00  0.00    -0.273 OA
ATOM     25  N   LEU A   9      51.222  -4.087 -10.385  0.00  0.00    -0.298 N 
ATOM     26  H   LEU A   9      51.798  -3.519 -11.039  0.00  0.00    +0.150 HD
BRANCH  25  27
ATOM     27  CA  LEU A   9      51.700  -5.373  -9.907  0.00  0.00    +0.137 C 
BRANCH  27  28
ATOM     28  C   LEU A   9      51.843  -5.298  -8.395  0.00  0.00    +0.227 C 
ATOM     29  O   LEU A   9      51.477  -6.231  -7.678  0.00  0.00    -0.286 OA
ENDBRANCH  27  28
BRANCH  27  30
ATOM     30  CB  LEU A   9      53.045  -5.738 -10.539  0.00  0.00    +0.028 C 
BRANCH  30  31
ATOM     31  CG  LEU A   9      52.992  -6.042 -12.040  0.00  0.00    +0.002 C 
ATOM     32  CD2 LEU A   9      52.029  -7.209 -12.338  0.00  0.00    +0.000 C 
ATOM     33  CD1 LEU A   9      54.399  -6.381 -12.502  0.00  0.00    +0.000 C 
ENDBRANCH  30  31
ENDBRANCH  27  30
ENDBRANCH  25  27
ENDBRANCH  22  23
BRANCH  22  34
ATOM     34  CB  THR A   8      48.942  -2.346 -11.862  0.00  0.00    +0.137 C 
ATOM     35  CG2 THR A   8      47.982  -3.538 -11.976  0.00  0.00    +0.034 C 
BRANCH  34  36
ATOM     36  OG1 THR A   8      48.192  -1.144 -12.082  0.00  0.00    -0.382 OA
ATOM     37  HG1 THR A   8      48.798  -0.363 -12.024  0.00  0.00    +0.210 HD
ENDBRANCH  34  36
ENDBRANCH  22  34
ENDBRANCH  20  22
ENDBRANCH  17  18
BRANCH  17  38
ATOM     38  CB  GLN A   7      51.939   1.451  -9.393  0.00  0.00    +0.039 C 
BRANCH  38  39
ATOM     39  CG  GLN A   7      52.998   2.404  -8.853  0.00  0.00    +0.087 C 
BRANCH  39  40
ATOM     40  CD  GLN A   7      52.499   3.847  -8.752  0.00  0.00    +0.219 C 
ATOM     41  NE2 GLN A   7      53.062   4.599  -7.825  0.00  0.00    -0.329 N 
ATOM     42 HE21 GLN A   7      53.786   4.195  -7.197  0.00  0.00    +0.145 HD
ATOM     43 HE22 GLN A   7      52.782   5.595  -7.723  0.00  0.00    +0.145 HD
ATOM     44  OE1 GLN A   7      51.642   4.274  -9.517  0.00  0.00    -0.275 OA
ENDBRANCH  39  40
ENDBRANCH  38  39
ENDBRANCH  17  38
ENDBRANCH  15  17
ENDBRANCH  12  13
BRANCH  12  45
ATOM     45  CB  LEU A   6      56.208  -1.405 -11.675  0.00  0.00    +0.029 C 
BRANCH  45  46
ATOM     46  CG  LEU A   6      57.077  -1.865 -12.860  0.00  0.00    +0.002 C 
ATOM     47  CD2 LEU A   6      58.501  -1.395 -12.656  0.00  0.00    +0.000 C 
ATOM     48  CD1 LEU A   6      57.039  -3.374 -13.017  0.00  0.00    +0.000 C 
ENDBRANCH  45  46
ENDBRANCH  12  45
ENDBRANCH  10  12
ENDBRANCH   4   8
BRANCH   1  49
ATOM     49  CA  THR A   4      53.531   3.023 -13.741  0.00  0.00    +0.176 C 
BRANCH  49  52
ATOM     50  C   ALA A   3      55.763   2.333 -14.416  0.00  0.00    +0.241 C 
ATOM     51  O   ALA A   3      55.809   1.488 -13.529  0.00  0.00    -0.273 OA
ATOM     52  N   THR A   4      54.696   3.098 -14.623  0.00  0.00    -0.295 N 
ATOM     53  H   THR A   4      54.689   3.760 -15.425  0.00  0.00    +0.150 HD
BRANCH  50  54
ATOM     54  CA  ALA A   3      56.952   2.542 -15.358  0.00  0.00    +0.149 C 
ATOM     55  CB  ALA A   3      57.437   1.195 -15.904  0.00  0.00    +0.031 C 
BRANCH  54  57
ATOM     56  C   TYR A   2      57.923   4.481 -14.266  0.00  0.00    +0.241 C 
ATOM     57  N   ALA A   3      58.018   3.197 -14.591  0.00  0.00    -0.297 N 
ATOM     58  H   ALA A   3      58.854   2.651 -14.300  0.00  0.00    +0.150 HD
ATOM     59  O   TYR A   2      57.015   5.209 -14.679  0.00  0.00    -0.273 OA
BRANCH  56  60
ATOM     60  CA  TYR A   2      58.977   5.025 -13.325  0.00  0.00    +0.153 C 
BRANCH  60  62
ATOM     61  C   GLU A   1      60.032   6.881 -14.480  0.00  0.00    +0.238 C 
ATOM     62  N   TYR A   2      59.177   6.447 -13.553  0.00  0.00    -0.297 N 
ATOM     63  H   TYR A   2      58.645   7.136 -12.984  0.00  0.00    +0.150 HD
ATOM     64  O   GLU A   1      60.788   6.135 -15.103  0.00  0.00    -0.274 OA
BRANCH  61  65
ATOM     65  CA  GLU A   1      60.021   8.368 -14.756  0.00  0.00    +0.145 C 
BRANCH  65  66
ATOM     66  N   GLU A   1      61.210   8.766 -15.506  0.00  0.00    -0.238 NA
ATOM     67  H   GLU A   1      61.772   8.041 -15.996  0.00  0.00    +0.142 HD
ENDBRANCH  65  66
BRANCH  65  68
ATOM     68  CB  GLU A   1      58.748   8.724 -15.537  0.00  0.00    +0.038 C 
BRANCH  68  69
ATOM     69  CG  GLU A   1      58.642   8.070 -16.907  0.00  0.00    +0.116 C 
BRANCH  69  70
ATOM     70  CD  GLU A   1      57.586   8.738 -17.769  0.00  0.00    +0.365 C 
ATOM     71  OE2 GLU A   1      57.696   9.965 -18.004  0.00  0.00    -0.246 OA
ATOM     72  OE1 GLU A   1      56.640   8.041 -18.200  0.00  0.00    -0.246 OA
ENDBRANCH  69  70
ENDBRANCH  68  69
ENDBRANCH  65  68
ENDBRANCH  61  65
ENDBRANCH  60  62
BRANCH  60  73
ATOM     73  CB  TYR A   2      58.477   4.784 -11.908  0.00  0.00    +0.055 C 
BRANCH  73  74
ATOM     74  CG  TYR A   2      59.544   4.903 -10.851  0.00  0.00    -0.020 A 
ATOM     75  CD2 TYR A   2      59.599   6.020 -10.040  0.00  0.00    -0.001 A 
ATOM     76  CE2 TYR A   2      60.551   6.139  -9.045  0.00  0.00    +0.036 A 
ATOM     77  CZ  TYR A   2      61.465   5.135  -8.843  0.00  0.00    +0.134 A 
ATOM     78  CE1 TYR A   2      61.442   3.999  -9.623  0.00  0.00    +0.036 A 
ATOM     79  CD1 TYR A   2      60.461   3.883 -10.634  0.00  0.00    -0.001 A 
BRANCH  77  80
ATOM     80  OH  TYR A   2      62.391   5.294  -7.834  0.00  0.00    -0.506 OA
ATOM     81  HH  TYR A   2      62.982   4.500  -7.802  0.00  0.00    +0.292 HD
ENDBRANCH  77  80
ENDBRANCH  73  74
ENDBRANCH  60  73
ENDBRANCH  56  60
ENDBRANCH  54  57
ENDBRANCH  50  54
ENDBRANCH  49  52
BRANCH  49  82
ATOM     82  CB  THR A   4      52.496   4.149 -14.065  0.00  0.00    +0.137 C 
ATOM     83  CG2 THR A   4      51.581   4.384 -12.874  0.00  0.00    +0.034 C 
BRANCH  82  84
ATOM     84  OG1 THR A   4      53.192   5.366 -14.369  0.00  0.00    -0.382 OA
ATOM     85  HG1 THR A   4      52.535   6.078 -14.574  0.00  0.00    +0.210 HD
ENDBRANCH  82  84
ENDBRANCH  49  82
ENDBRANCH   1  49
TORSDOF 34
REMARK  Name = ../refined-set-2016/4ksy/4ksy_pocket.pdb
REMARK  278 active torsions:
REMARK  status: ('A' for Active; 'I' for Inactive)
REMARK    1  A    between atoms: _1  and  _3
REMARK    2  A    between atoms: _3  and  _4
REMARK    3  A    between atoms: _6  and  _8
REMARK    4  A    between atoms: _8  and  _9
REMARK    5  A    between atoms: _8  and  _11
REMARK    6  A    between atoms: _11  and  _12
REMARK    7  A    between atoms: _15  and  _17
REMARK    8  A    between atoms: _17  and  _18
REMARK    9  A    between atoms: _21  and  _23
REMARK   10  A    between atoms: _23  and  _24
REMARK   11  A    between atoms: _23  and  _26
REMARK   12  A    between atoms: _26  and  _27
REMARK   13  A    between atoms: _37  and  _39
REMARK   14  A    between atoms: _39  and  _40
REMARK   15  A    between atoms: _39  and  _42
REMARK   16  A    between atoms: _42  and  _43
REMARK   17  A    between atoms: _45  and  _47
REMARK   18  A    between atoms: _47  and  _48
REMARK   19  A    between atoms: _47  and  _50
REMARK   20  A    between atoms: _50  and  _51
REMARK   21  A    between atoms: _56  and  _57
REMARK   22  A    between atoms: _59  and  _61
REMARK   23  A    between atoms: _61  and  _62
REMARK   24  A    between atoms: _61  and  _64
REMARK   25  A    between atoms: _64  and  _65
REMARK   26  A    between atoms: _70  and  _71
REMARK   27  A    between atoms: _73  and  _75
REMARK   28  A    between atoms: _75  and  _76
REMARK   29  A    between atoms: _75  and  _78
REMARK   30  A    between atoms: _78  and  _79
REMARK   31  A    between atoms: _82  and  _84
REMARK   32  A    between atoms: _84  and  _85
REMARK   33  A    between atoms: _87  and  _89
REMARK   34  A    between atoms: _89  and  _90
REMARK   35  A    between atoms: _89  and  _92
REMARK   36  A    between atoms: _92  and  _93
REMARK   37  A    between atoms: _98  and  _99
REMARK   38  A    between atoms: _101  and  _103
REMARK   39  A    between atoms: _103  and  _104
REMARK   40  A    between atoms: _103  and  _106
REMARK   41  A    between atoms: _106  and  _107
REMARK   42  A    between atoms: _110  and  _112
REMARK   43  A    between atoms: _112  and  _113
REMARK   44  A    between atoms: _112  and  _115
REMARK   45  A    between atoms: _115  and  _116
REMARK   46  A    between atoms: _116  and  _117
REMARK   47  A    between atoms: _117  and  _118
REMARK   48  A    between atoms: _127  and  _129
REMARK   49  A    between atoms: _129  and  _130
REMARK   50  A    between atoms: _129  and  _132
REMARK   51  A    between atoms: _132  and  _133
REMARK   52  A    between atoms: _136  and  _138
REMARK   53  A    between atoms: _138  and  _139
REMARK   54  A    between atoms: _138  and  _141
REMARK   55  A    between atoms: _141  and  _142
REMARK   56  A    between atoms: _145  and  _147
REMARK   57  A    between atoms: _147  and  _148
REMARK   58  A    between atoms: _147  and  _150
REMARK   59  A    between atoms: _150  and  _151
REMARK   60  A    between atoms: _154  and  _156
REMARK   61  A    between atoms: _156  and  _157
REMARK   62  A    between atoms: _156  and  _159
REMARK   63  A    between atoms: _159  and  _160
REMARK   64  A    between atoms: _163  and  _165
REMARK   65  A    between atoms: _165  and  _166
REMARK   66  A    between atoms: _165  and  _168
REMARK   67  A    between atoms: _168  and  _169
REMARK   68  A    between atoms: _169  and  _170
REMARK   69  A    between atoms: _175  and  _177
REMARK   70  A    between atoms: _177  and  _178
REMARK   71  A    between atoms: _177  and  _180
REMARK   72  A    between atoms: _180  and  _181
REMARK   73  A    between atoms: _181  and  _182
REMARK   74  A    between atoms: _182  and  _183
REMARK   75  A    between atoms: _192  and  _194
REMARK   76  A    between atoms: _194  and  _195
REMARK   77  A    between atoms: _198  and  _200
REMARK   78  A    between atoms: _200  and  _201
REMARK   79  A    between atoms: _200  and  _203
REMARK   80  A    between atoms: _203  and  _204
REMARK   81  A    between atoms: _207  and  _209
REMARK   82  A    between atoms: _209  and  _210
REMARK   83  A    between atoms: _209  and  _212
REMARK   84  A    between atoms: _212  and  _213
REMARK   85  A    between atoms: _216  and  _218
REMARK   86  A    between atoms: _218  and  _219
REMARK   87  A    between atoms: _218  and  _221
REMARK   88  A    between atoms: _221  and  _222
REMARK   89  A    between atoms: _222  and  _223
REMARK   90  A    between atoms: _223  and  _224
REMARK   91  A    between atoms: _233  and  _235
REMARK   92  A    between atoms: _235  and  _236
REMARK   93  A    between atoms: _235  and  _238
REMARK   94  A    between atoms: _241  and  _243
REMARK   95  A    between atoms: _243  and  _244
REMARK   96  A    between atoms: _243  and  _246
REMARK   97  A    between atoms: _246  and  _247
REMARK   98  A    between atoms: _252  and  _253
REMARK   99  A    between atoms: _255  and  _257
REMARK  100  A    between atoms: _257  and  _258
REMARK  101  A    between atoms: _257  and  _260
REMARK  102  A    between atoms: _260  and  _261
REMARK  103  A    between atoms: _263  and  _265
REMARK  104  A    between atoms: _265  and  _266
REMARK  105  A    between atoms: _265  and  _268
REMARK  106  A    between atoms: _268  and  _269
REMARK  107  A    between atoms: _274  and  _276
REMARK  108  A    between atoms: _276  and  _277
REMARK  109  A    between atoms: _276  and  _279
REMARK  110  A    between atoms: _279  and  _280
REMARK  111  A    between atoms: _280  and  _281
REMARK  112  A    between atoms: _284  and  _286
REMARK  113  A    between atoms: _286  and  _287
REMARK  114  A    between atoms: _286  and  _289
REMARK  115  A    between atoms: _289  and  _290
REMARK  116  A    between atoms: _295  and  _296
REMARK  117  A    between atoms: _298  and  _300
REMARK  118  A    between atoms: _300  and  _301
REMARK  119  A    between atoms: _304  and  _306
REMARK  120  A    between atoms: _306  and  _307
REMARK  121  A    between atoms: _306  and  _309
REMARK  122  A    between atoms: _309  and  _310
REMARK  123  A    between atoms: _314  and  _315
REMARK  124  A    between atoms: _320  and  _322
REMARK  125  A    between atoms: _322  and  _323
REMARK  126  A    between atoms: _322  and  _325
REMARK  127  A    between atoms: _325  and  _326
REMARK  128  A    between atoms: _329  and  _331
REMARK  129  A    between atoms: _331  and  _332
REMARK  130  A    between atoms: _331  and  _334
REMARK  131  A    between atoms: _334  and  _335
REMARK  132  A    between atoms: _335  and  _336
REMARK  133  A    between atoms: _341  and  _343
REMARK  134  A    between atoms: _343  and  _344
REMARK  135  A    between atoms: _343  and  _346
REMARK  136  A    between atoms: _346  and  _347
REMARK  137  A    between atoms: _350  and  _352
REMARK  138  A    between atoms: _352  and  _353
REMARK  139  A    between atoms: _352  and  _355
REMARK  140  A    between atoms: _355  and  _356
REMARK  141  A    between atoms: _362  and  _364
REMARK  142  A    between atoms: _364  and  _365
REMARK  143  A    between atoms: _364  and  _367
REMARK  144  A    between atoms: _367  and  _368
REMARK  145  A    between atoms: _371  and  _373
REMARK  146  A    between atoms: _373  and  _374
REMARK  147  A    between atoms: _377  and  _379
REMARK  148  A    between atoms: _379  and  _380
REMARK  149  A    between atoms: _379  and  _382
REMARK  150  A    between atoms: _382  and  _383
REMARK  151  A    between atoms: _393  and  _395
REMARK  152  A    between atoms: _395  and  _396
REMARK  153  A    between atoms: _395  and  _398
REMARK  154  A    between atoms: _398  and  _399
REMARK  155  A    between atoms: _401  and  _403
REMARK  156  A    between atoms: _403  and  _404
REMARK  157  A    between atoms: _403  and  _406
REMARK  158  A    between atoms: _406  and  _407
REMARK  159  A    between atoms: _412  and  _413
REMARK  160  A    between atoms: _415  and  _417
REMARK  161  A    between atoms: _417  and  _418
REMARK  162  A    between atoms: _417  and  _420
REMARK  163  A    between atoms: _420  and  _421
REMARK  164  A    between atoms: _426  and  _427
REMARK  165  A    between atoms: _429  and  _431
REMARK  166  A    between atoms: _431  and  _432
REMARK  167  A    between atoms: _431  and  _434
REMARK  168  A    between atoms: _434  and  _435
REMARK  169  A    between atoms: _438  and  _440
REMARK  170  A    between atoms: _440  and  _441
REMARK  171  A    between atoms: _443  and  _445
REMARK  172  A    between atoms: _445  and  _446
REMARK  173  A    between atoms: _445  and  _448
REMARK  174  A    between atoms: _448  and  _449
REMARK  175  A    between atoms: _454  and  _455
REMARK  176  A    between atoms: _457  and  _459
REMARK  177  A    between atoms: _459  and  _460
REMARK  178  A    between atoms: _459  and  _462
REMARK  179  A    between atoms: _462  and  _463
REMARK  180  A    between atoms: _466  and  _468
REMARK  181  A    between atoms: _468  and  _469
REMARK  182  A    between atoms: _468  and  _471
REMARK  183  A    between atoms: _471  and  _472
REMARK  184  A    between atoms: _472  and  _473
REMARK  185  A    between atoms: _473  and  _474
REMARK  186  A    between atoms: _483  and  _485
REMARK  187  A    between atoms: _485  and  _486
REMARK  188  A    between atoms: _485  and  _488
REMARK  189  A    between atoms: _488  and  _489
REMARK  190  A    between atoms: _492  and  _494
REMARK  191  A    between atoms: _494  and  _495
REMARK  192  A    between atoms: _494  and  _497
REMARK  193  A    between atoms: _497  and  _498
REMARK  194  A    between atoms: _501  and  _503
REMARK  195  A    between atoms: _503  and  _504
REMARK  196  A    between atoms: _503  and  _506
REMARK  197  A    between atoms: _506  and  _507
REMARK  198  A    between atoms: _507  and  _508
REMARK  199  A    between atoms: _508  and  _509
REMARK  200  A    between atoms: _518  and  _520
REMARK  201  A    between atoms: _520  and  _521
REMARK  202  A    between atoms: _520  and  _523
REMARK  203  A    between atoms: _523  and  _524
REMARK  204  A    between atoms: _524  and  _525
REMARK  205  A    between atoms: _530  and  _532
REMARK  206  A    between atoms: _532  and  _533
REMARK  207  A    between atoms: _532  and  _535
REMARK  208  A    between atoms: _535  and  _536
REMARK  209  A    between atoms: _536  and  _537
REMARK  210  A    between atoms: _537  and  _538
REMARK  211  A    between atoms: _547  and  _549
REMARK  212  A    between atoms: _549  and  _550
REMARK  213  A    between atoms: _553  and  _555
REMARK  214  A    between atoms: _555  and  _556
REMARK  215  A    between atoms: _558  and  _560
REMARK  216  A    between atoms: _560  and  _561
REMARK  217  A    between atoms: _560  and  _563
REMARK  218  A    between atoms: _563  and  _564
REMARK  219  A    between atoms: _567  and  _569
REMARK  220  A    between atoms: _569  and  _570
REMARK  221  A    between atoms: _569  and  _572
REMARK  222  A    between atoms: _572  and  _573
REMARK  223  A    between atoms: _573  and  _574
REMARK  224  A    between atoms: _574  and  _575
REMARK  225  A    between atoms: _584  and  _586
REMARK  226  A    between atoms: _586  and  _587
REMARK  227  A    between atoms: _586  and  _589
REMARK  228  A    between atoms: _592  and  _594
REMARK  229  A    between atoms: _594  and  _595
REMARK  230  A    between atoms: _594  and  _597
REMARK  231  A    between atoms: _597  and  _598
REMARK  232  A    between atoms: _603  and  _604
REMARK  233  A    between atoms: _606  and  _608
REMARK  234  A    between atoms: _608  and  _609
REMARK  235  A    between atoms: _608  and  _611
REMARK  236  A    between atoms: _611  and  _612
REMARK  237  A    between atoms: _614  and  _616
REMARK  238  A    between atoms: _616  and  _617
REMARK  239  A    between atoms: _616  and  _619
REMARK  240  A    between atoms: _619  and  _620
REMARK  241  A    between atoms: _625  and  _627
REMARK  242  A    between atoms: _627  and  _628
REMARK  243  A    between atoms: _627  and  _630
REMARK  244  A    between atoms: _630  and  _631
REMARK  245  A    between atoms: _631  and  _632
REMARK  246  A    between atoms: _635  and  _637
REMARK  247  A    between atoms: _637  and  _638
REMARK  248  A    between atoms: _637  and  _640
REMARK  249  A    between atoms: _640  and  _641
REMARK  250  A    between atoms: _646  and  _647
REMARK  251  A    between atoms: _649  and  _651
REMARK  252  A    between atoms: _651  and  _652
REMARK  253  A    between atoms: _655  and  _657
REMARK  254  A    between atoms: _657  and  _658
REMARK  255  A    between atoms: _657  and  _660
REMARK  256  A    between atoms: _660  and  _661
REMARK  257  A    between atoms: _665  and  _666
REMARK  258  A    between atoms: _671  and  _673
REMARK  259  A    between atoms: _673  and  _674
REMARK  260  A    between atoms: _673  and  _676
REMARK  261  A    between atoms: _676  and  _677
REMARK  262  A    between atoms: _680  and  _682
REMARK  263  A    between atoms: _682  and  _683
REMARK  264  A    between atoms: _682  and  _685
REMARK  265  A    between atoms: _685  and  _686
REMARK  266  A    between atoms: _686  and  _687
REMARK  267  A    between atoms: _692  and  _694
REMARK  268  A    between atoms: _694  and  _695
REMARK  269  A    between atoms: _694  and  _697
REMARK  270  A    between atoms: _697  and  _698
REMARK  271  A    between atoms: _701  and  _703
REMARK  272  A    between atoms: _703  and  _704
REMARK  273  A    between atoms: _703  and  _706
REMARK  274  A    between atoms: _706  and  _707
REMARK  275  A    between atoms: _710  and  _712
REMARK  276  A    between atoms: _712  and  _713
REMARK  277  A    between atoms: _712  and  _715
REMARK  278  A    between atoms: _715  and  _716
REMARK                            x       y       z     vdW  Elec       q    Type
REMARK                         _______ _______ _______ _____ _____    ______ ____
ROOT
ATOM      1  CB  PHE A   1      56.301  -6.257 -16.682  0.00  0.00    +0.051 C 
ENDROOT
BRANCH   1   2
ATOM      2  CG  PHE A   1      56.005  -4.839 -17.121  0.00  0.00    -0.020 A 
ATOM      3  CD2 PHE A   1      56.974  -3.846 -17.018  0.00  0.00    -0.004 A 
ATOM      4  CE2 PHE A   1      56.715  -2.540 -17.415  0.00  0.00    -0.000 A 
ATOM      5  CZ  PHE A   1      55.466  -2.206 -17.935  0.00  0.00    -0.000 A 
ATOM      6  CE1 PHE A   1      54.474  -3.183 -18.032  0.00  0.00    -0.000 A 
ATOM      7  CD1 PHE A   1      54.745  -4.497 -17.636  0.00  0.00    -0.004 A 
ENDBRANCH   1   2
BRANCH   1   8
ATOM      8  CA  PHE A   1      56.732  -7.187 -17.839  0.00  0.00    +0.137 C 
BRANCH   8   9
ATOM      9  N   PHE A   1      57.138  -8.504 -17.343  0.00  0.00    -0.239 NA
ATOM     10  H   PHE A   1      57.079  -8.700 -16.323  0.00  0.00    +0.142 HD
ENDBRANCH   8   9
BRANCH   8  11
ATOM     11  C   PHE A   1      57.905  -6.557 -18.584  0.00  0.00    +0.224 C 
ATOM     12  O   PHE A   1      57.760  -6.070 -19.707  0.00  0.00    -0.287 OA
ENDBRANCH   8  11
ENDBRANCH   1   8
TORSDOF 4
REMARK  Name = ../refined-set-2016/4ksy/4ksy_pocket.pdb
REMARK  278 active torsions:
REMARK  status: ('A' for Active; 'I' for Inactive)
REMARK    1  A    between atoms: _1  and  _3
REMARK    2  A    between atoms: _3  and  _4
REMARK    3  A    between atoms: _6  and  _8
REMARK    4  A    between atoms: _8  and  _9
REMARK    5  A    between atoms: _8  and  _11
REMARK    6  A    between atoms: _11  and  _12
REMARK    7  A    between atoms: _15  and  _17
REMARK    8  A    between atoms: _17  and  _18
REMARK    9  A    between atoms: _21  and  _23
REMARK   10  A    between atoms: _23  and  _24
REMARK   11  A    between atoms: _23  and  _26
REMARK   12  A    between atoms: _26  and  _27
REMARK   13  A    between atoms: _37  and  _39
REMARK   14  A    between atoms: _39  and  _40
REMARK   15  A    between atoms: _39  and  _42
REMARK   16  A    between atoms: _42  and  _43
REMARK   17  A    between atoms: _45  and  _47
REMARK   18  A    between atoms: _47  and  _48
REMARK   19  A    between atoms: _47  and  _50
REMARK   20  A    between atoms: _50  and  _51
REMARK   21  A    between atoms: _56  and  _57
REMARK   22  A    between atoms: _59  and  _61
REMARK   23  A    between atoms: _61  and  _62
REMARK   24  A    between atoms: _61  and  _64
REMARK   25  A    between atoms: _64  and  _65
REMARK   26  A    between atoms: _70  and  _71
REMARK   27  A    between atoms: _73  and  _75
REMARK   28  A    between atoms: _75  and  _76
REMARK   29  A    between atoms: _75  and  _78
REMARK   30  A    between atoms: _78  and  _79
REMARK   31  A    between atoms: _82  and  _84
REMARK   32  A    between atoms: _84  and  _85
REMARK   33  A    between atoms: _87  and  _89
REMARK   34  A    between atoms: _89  and  _90
REMARK   35  A    between atoms: _89  and  _92
REMARK   36  A    between atoms: _92  and  _93
REMARK   37  A    between atoms: _98  and  _99
REMARK   38  A    between atoms: _101  and  _103
REMARK   39  A    between atoms: _103  and  _104
REMARK   40  A    between atoms: _103  and  _106
REMARK   41  A    between atoms: _106  and  _107
REMARK   42  A    between atoms: _110  and  _112
REMARK   43  A    between atoms: _112  and  _113
REMARK   44  A    between atoms: _112  and  _115
REMARK   45  A    between atoms: _115  and  _116
REMARK   46  A    between atoms: _116  and  _117
REMARK   47  A    between atoms: _117  and  _118
REMARK   48  A    between atoms: _127  and  _129
REMARK   49  A    between atoms: _129  and  _130
REMARK   50  A    between atoms: _129  and  _132
REMARK   51  A    between atoms: _132  and  _133
REMARK   52  A    between atoms: _136  and  _138
REMARK   53  A    between atoms: _138  and  _139
REMARK   54  A    between atoms: _138  and  _141
REMARK   55  A    between atoms: _141  and  _142
REMARK   56  A    between atoms: _145  and  _147
REMARK   57  A    between atoms: _147  and  _148
REMARK   58  A    between atoms: _147  and  _150
REMARK   59  A    between atoms: _150  and  _151
REMARK   60  A    between atoms: _154  and  _156
REMARK   61  A    between atoms: _156  and  _157
REMARK   62  A    between atoms: _156  and  _159
REMARK   63  A    between atoms: _159  and  _160
REMARK   64  A    between atoms: _163  and  _165
REMARK   65  A    between atoms: _165  and  _166
REMARK   66  A    between atoms: _165  and  _168
REMARK   67  A    between atoms: _168  and  _169
REMARK   68  A    between atoms: _169  and  _170
REMARK   69  A    between atoms: _175  and  _177
REMARK   70  A    between atoms: _177  and  _178
REMARK   71  A    between atoms: _177  and  _180
REMARK   72  A    between atoms: _180  and  _181
REMARK   73  A    between atoms: _181  and  _182
REMARK   74  A    between atoms: _182  and  _183
REMARK   75  A    between atoms: _192  and  _194
REMARK   76  A    between atoms: _194  and  _195
REMARK   77  A    between atoms: _198  and  _200
REMARK   78  A    between atoms: _200  and  _201
REMARK   79  A    between atoms: _200  and  _203
REMARK   80  A    between atoms: _203  and  _204
REMARK   81  A    between atoms: _207  and  _209
REMARK   82  A    between atoms: _209  and  _210
REMARK   83  A    between atoms: _209  and  _212
REMARK   84  A    between atoms: _212  and  _213
REMARK   85  A    between atoms: _216  and  _218
REMARK   86  A    between atoms: _218  and  _219
REMARK   87  A    between atoms: _218  and  _221
REMARK   88  A    between atoms: _221  and  _222
REMARK   89  A    between atoms: _222  and  _223
REMARK   90  A    between atoms: _223  and  _224
REMARK   91  A    between atoms: _233  and  _235
REMARK   92  A    between atoms: _235  and  _236
REMARK   93  A    between atoms: _235  and  _238
REMARK   94  A    between atoms: _241  and  _243
REMARK   95  A    between atoms: _243  and  _244
REMARK   96  A    between atoms: _243  and  _246
REMARK   97  A    between atoms: _246  and  _247
REMARK   98  A    between atoms: _252  and  _253
REMARK   99  A    between atoms: _255  and  _257
REMARK  100  A    between atoms: _257  and  _258
REMARK  101  A    between atoms: _257  and  _260
REMARK  102  A    between atoms: _260  and  _261
REMARK  103  A    between atoms: _263  and  _265
REMARK  104  A    between atoms: _265  and  _266
REMARK  105  A    between atoms: _265  and  _268
REMARK  106  A    between atoms: _268  and  _269
REMARK  107  A    between atoms: _274  and  _276
REMARK  108  A    between atoms: _276  and  _277
REMARK  109  A    between atoms: _276  and  _279
REMARK  110  A    between atoms: _279  and  _280
REMARK  111  A    between atoms: _280  and  _281
REMARK  112  A    between atoms: _284  and  _286
REMARK  113  A    between atoms: _286  and  _287
REMARK  114  A    between atoms: _286  and  _289
REMARK  115  A    between atoms: _289  and  _290
REMARK  116  A    between atoms: _295  and  _296
REMARK  117  A    between atoms: _298  and  _300
REMARK  118  A    between atoms: _300  and  _301
REMARK  119  A    between atoms: _304  and  _306
REMARK  120  A    between atoms: _306  and  _307
REMARK  121  A    between atoms: _306  and  _309
REMARK  122  A    between atoms: _309  and  _310
REMARK  123  A    between atoms: _314  and  _315
REMARK  124  A    between atoms: _320  and  _322
REMARK  125  A    between atoms: _322  and  _323
REMARK  126  A    between atoms: _322  and  _325
REMARK  127  A    between atoms: _325  and  _326
REMARK  128  A    between atoms: _329  and  _331
REMARK  129  A    between atoms: _331  and  _332
REMARK  130  A    between atoms: _331  and  _334
REMARK  131  A    between atoms: _334  and  _335
REMARK  132  A    between atoms: _335  and  _336
REMARK  133  A    between atoms: _341  and  _343
REMARK  134  A    between atoms: _343  and  _344
REMARK  135  A    between atoms: _343  and  _346
REMARK  136  A    between atoms: _346  and  _347
REMARK  137  A    between atoms: _350  and  _352
REMARK  138  A    between atoms: _352  and  _353
REMARK  139  A    between atoms: _352  and  _355
REMARK  140  A    between atoms: _355  and  _356
REMARK  141  A    between atoms: _362  and  _364
REMARK  142  A    between atoms: _364  and  _365
REMARK  143  A    between atoms: _364  and  _367
REMARK  144  A    between atoms: _367  and  _368
REMARK  145  A    between atoms: _371  and  _373
REMARK  146  A    between atoms: _373  and  _374
REMARK  147  A    between atoms: _377  and  _379
REMARK  148  A    between atoms: _379  and  _380
REMARK  149  A    between atoms: _379  and  _382
REMARK  150  A    between atoms: _382  and  _383
REMARK  151  A    between atoms: _393  and  _395
REMARK  152  A    between atoms: _395  and  _396
REMARK  153  A    between atoms: _395  and  _398
REMARK  154  A    between atoms: _398  and  _399
REMARK  155  A    between atoms: _401  and  _403
REMARK  156  A    between atoms: _403  and  _404
REMARK  157  A    between atoms: _403  and  _406
REMARK  158  A    between atoms: _406  and  _407
REMARK  159  A    between atoms: _412  and  _413
REMARK  160  A    between atoms: _415  and  _417
REMARK  161  A    between atoms: _417  and  _418
REMARK  162  A    between atoms: _417  and  _420
REMARK  163  A    between atoms: _420  and  _421
REMARK  164  A    between atoms: _426  and  _427
REMARK  165  A    between atoms: _429  and  _431
REMARK  166  A    between atoms: _431  and  _432
REMARK  167  A    between atoms: _431  and  _434
REMARK  168  A    between atoms: _434  and  _435
REMARK  169  A    between atoms: _438  and  _440
REMARK  170  A    between atoms: _440  and  _441
REMARK  171  A    between atoms: _443  and  _445
REMARK  172  A    between atoms: _445  and  _446
REMARK  173  A    between atoms: _445  and  _448
REMARK  174  A    between atoms: _448  and  _449
REMARK  175  A    between atoms: _454  and  _455
REMARK  176  A    between atoms: _457  and  _459
REMARK  177  A    between atoms: _459  and  _460
REMARK  178  A    between atoms: _459  and  _462
REMARK  179  A    between atoms: _462  and  _463
REMARK  180  A    between atoms: _466  and  _468
REMARK  181  A    between atoms: _468  and  _469
REMARK  182  A    between atoms: _468  and  _471
REMARK  183  A    between atoms: _471  and  _472
REMARK  184  A    between atoms: _472  and  _473
REMARK  185  A    between atoms: _473  and  _474
REMARK  186  A    between atoms: _483  and  _485
REMARK  187  A    between atoms: _485  and  _486
REMARK  188  A    between atoms: _485  and  _488
REMARK  189  A    between atoms: _488  and  _489
REMARK  190  A    between atoms: _492  and  _494
REMARK  191  A    between atoms: _494  and  _495
REMARK  192  A    between atoms: _494  and  _497
REMARK  193  A    between atoms: _497  and  _498
REMARK  194  A    between atoms: _501  and  _503
REMARK  195  A    between atoms: _503  and  _504
REMARK  196  A    between atoms: _503  and  _506
REMARK  197  A    between atoms: _506  and  _507
REMARK  198  A    between atoms: _507  and  _508
REMARK  199  A    between atoms: _508  and  _509
REMARK  200  A    between atoms: _518  and  _520
REMARK  201  A    between atoms: _520  and  _521
REMARK  202  A    between atoms: _520  and  _523
REMARK  203  A    between atoms: _523  and  _524
REMARK  204  A    between atoms: _524  and  _525
REMARK  205  A    between atoms: _530  and  _532
REMARK  206  A    between atoms: _532  and  _533
REMARK  207  A    between atoms: _532  and  _535
REMARK  208  A    between atoms: _535  and  _536
REMARK  209  A    between atoms: _536  and  _537
REMARK  210  A    between atoms: _537  and  _538
REMARK  211  A    between atoms: _547  and  _549
REMARK  212  A    between atoms: _549  and  _550
REMARK  213  A    between atoms: _553  and  _555
REMARK  214  A    between atoms: _555  and  _556
REMARK  215  A    between atoms: _558  and  _560
REMARK  216  A    between atoms: _560  and  _561
REMARK  217  A    between atoms: _560  and  _563
REMARK  218  A    between atoms: _563  and  _564
REMARK  219  A    between atoms: _567  and  _569
REMARK  220  A    between atoms: _569  and  _570
REMARK  221  A    between atoms: _569  and  _572
REMARK  222  A    between atoms: _572  and  _573
REMARK  223  A    between atoms: _573  and  _574
REMARK  224  A    between atoms: _574  and  _575
REMARK  225  A    between atoms: _584  and  _586
REMARK  226  A    between atoms: _586  and  _587
REMARK  227  A    between atoms: _586  and  _589
REMARK  228  A    between atoms: _592  and  _594
REMARK  229  A    between atoms: _594  and  _595
REMARK  230  A    between atoms: _594  and  _597
REMARK  231  A    between atoms: _597  and  _598
REMARK  232  A    between atoms: _603  and  _604
REMARK  233  A    between atoms: _606  and  _608
REMARK  234  A    between atoms: _608  and  _609
REMARK  235  A    between atoms: _608  and  _611
REMARK  236  A    between atoms: _611  and  _612
REMARK  237  A    between atoms: _614  and  _616
REMARK  238  A    between atoms: _616  and  _617
REMARK  239  A    between atoms: _616  and  _619
REMARK  240  A    between atoms: _619  and  _620
REMARK  241  A    between atoms: _625  and  _627
REMARK  242  A    between atoms: _627  and  _628
REMARK  243  A    between atoms: _627  and  _630
REMARK  244  A    between atoms: _630  and  _631
REMARK  245  A    between atoms: _631  and  _632
REMARK  246  A    between atoms: _635  and  _637
REMARK  247  A    between atoms: _637  and  _638
REMARK  248  A    between atoms: _637  and  _640
REMARK  249  A    between atoms: _640  and  _641
REMARK  250  A    between atoms: _646  and  _647
REMARK  251  A    between atoms: _649  and  _651
REMARK  252  A    between atoms: _651  and  _652
REMARK  253  A    between atoms: _655  and  _657
REMARK  254  A    between atoms: _657  and  _658
REMARK  255  A    between atoms: _657  and  _660
REMARK  256  A    between atoms: _660  and  _661
REMARK  257  A    between atoms: _665  and  _666
REMARK  258  A    between atoms: _671  and  _673
REMARK  259  A    between atoms: _673  and  _674
REMARK  260  A    between atoms: _673  and  _676
REMARK  261  A    between atoms: _676  and  _677
REMARK  262  A    between atoms: _680  and  _682
REMARK  263  A    between atoms: _682  and  _683
REMARK  264  A    between atoms: _682  and  _685
REMARK  265  A    between atoms: _685  and  _686
REMARK  266  A    between atoms: _686  and  _687
REMARK  267  A    between atoms: _692  and  _694
REMARK  268  A    between atoms: _694  and  _695
REMARK  269  A    between atoms: _694  and  _697
REMARK  270  A    between atoms: _697  and  _698
REMARK  271  A    between atoms: _701  and  _703
REMARK  272  A    between atoms: _703  and  _704
REMARK  273  A    between atoms: _703  and  _706
REMARK  274  A    between atoms: _706  and  _707
REMARK  275  A    between atoms: _710  and  _712
REMARK  276  A    between atoms: _712  and  _713
REMARK  277  A    between atoms: _712  and  _715
REMARK  278  A    between atoms: _715  and  _716
REMARK                            x       y       z     vdW  Elec       q    Type
REMARK                         _______ _______ _______ _____ _____    ______ ____
ROOT
ATOM      1  O   HOH     1      48.987  -0.237 -15.417  0.00  0.00    +0.000 OA
ENDROOT
TORSDOF 0
REMARK  Name = ../refined-set-2016/4ksy/4ksy_pocket.pdb
REMARK  278 active torsions:
REMARK  status: ('A' for Active; 'I' for Inactive)
REMARK    1  A    between atoms: _1  and  _3
REMARK    2  A    between atoms: _3  and  _4
REMARK    3  A    between atoms: _6  and  _8
REMARK    4  A    between atoms: _8  and  _9
REMARK    5  A    between atoms: _8  and  _11
REMARK    6  A    between atoms: _11  and  _12
REMARK    7  A    between atoms: _15  and  _17
REMARK    8  A    between atoms: _17  and  _18
REMARK    9  A    between atoms: _21  and  _23
REMARK   10  A    between atoms: _23  and  _24
REMARK   11  A    between atoms: _23  and  _26
REMARK   12  A    between atoms: _26  and  _27
REMARK   13  A    between atoms: _37  and  _39
REMARK   14  A    between atoms: _39  and  _40
REMARK   15  A    between atoms: _39  and  _42
REMARK   16  A    between atoms: _42  and  _43
REMARK   17  A    between atoms: _45  and  _47
REMARK   18  A    between atoms: _47  and  _48
REMARK   19  A    between atoms: _47  and  _50
REMARK   20  A    between atoms: _50  and  _51
REMARK   21  A    between atoms: _56  and  _57
REMARK   22  A    between atoms: _59  and  _61
REMARK   23  A    between atoms: _61  and  _62
REMARK   24  A    between atoms: _61  and  _64
REMARK   25  A    between atoms: _64  and  _65
REMARK   26  A    between atoms: _70  and  _71
REMARK   27  A    between atoms: _73  and  _75
REMARK   28  A    between atoms: _75  and  _76
REMARK   29  A    between atoms: _75  and  _78
REMARK   30  A    between atoms: _78  and  _79
REMARK   31  A    between atoms: _82  and  _84
REMARK   32  A    between atoms: _84  and  _85
REMARK   33  A    between atoms: _87  and  _89
REMARK   34  A    between atoms: _89  and  _90
REMARK   35  A    between atoms: _89  and  _92
REMARK   36  A    between atoms: _92  and  _93
REMARK   37  A    between atoms: _98  and  _99
REMARK   38  A    between atoms: _101  and  _103
REMARK   39  A    between atoms: _103  and  _104
REMARK   40  A    between atoms: _103  and  _106
REMARK   41  A    between atoms: _106  and  _107
REMARK   42  A    between atoms: _110  and  _112
REMARK   43  A    between atoms: _112  and  _113
REMARK   44  A    between atoms: _112  and  _115
REMARK   45  A    between atoms: _115  and  _116
REMARK   46  A    between atoms: _116  and  _117
REMARK   47  A    between atoms: _117  and  _118
REMARK   48  A    between atoms: _127  and  _129
REMARK   49  A    between atoms: _129  and  _130
REMARK   50  A    between atoms: _129  and  _132
REMARK   51  A    between atoms: _132  and  _133
REMARK   52  A    between atoms: _136  and  _138
REMARK   53  A    between atoms: _138  and  _139
REMARK   54  A    between atoms: _138  and  _141
REMARK   55  A    between atoms: _141  and  _142
REMARK   56  A    between atoms: _145  and  _147
REMARK   57  A    between atoms: _147  and  _148
REMARK   58  A    between atoms: _147  and  _150
REMARK   59  A    between atoms: _150  and  _151
REMARK   60  A    between atoms: _154  and  _156
REMARK   61  A    between atoms: _156  and  _157
REMARK   62  A    between atoms: _156  and  _159
REMARK   63  A    between atoms: _159  and  _160
REMARK   64  A    between atoms: _163  and  _165
REMARK   65  A    between atoms: _165  and  _166
REMARK   66  A    between atoms: _165  and  _168
REMARK   67  A    between atoms: _168  and  _169
REMARK   68  A    between atoms: _169  and  _170
REMARK   69  A    between atoms: _175  and  _177
REMARK   70  A    between atoms: _177  and  _178
REMARK   71  A    between atoms: _177  and  _180
REMARK   72  A    between atoms: _180  and  _181
REMARK   73  A    between atoms: _181  and  _182
REMARK   74  A    between atoms: _182  and  _183
REMARK   75  A    between atoms: _192  and  _194
REMARK   76  A    between atoms: _194  and  _195
REMARK   77  A    between atoms: _198  and  _200
REMARK   78  A    between atoms: _200  and  _201
REMARK   79  A    between atoms: _200  and  _203
REMARK   80  A    between atoms: _203  and  _204
REMARK   81  A    between atoms: _207  and  _209
REMARK   82  A    between atoms: _209  and  _210
REMARK   83  A    between atoms: _209  and  _212
REMARK   84  A    between atoms: _212  and  _213
REMARK   85  A    between atoms: _216  and  _218
REMARK   86  A    between atoms: _218  and  _219
REMARK   87  A    between atoms: _218  and  _221
REMARK   88  A    between atoms: _221  and  _222
REMARK   89  A    between atoms: _222  and  _223
REMARK   90  A    between atoms: _223  and  _224
REMARK   91  A    between atoms: _233  and  _235
REMARK   92  A    between atoms: _235  and  _236
REMARK   93  A    between atoms: _235  and  _238
REMARK   94  A    between atoms: _241  and  _243
REMARK   95  A    between atoms: _243  and  _244
REMARK   96  A    between atoms: _243  and  _246
REMARK   97  A    between atoms: _246  and  _247
REMARK   98  A    between atoms: _252  and  _253
REMARK   99  A    between atoms: _255  and  _257
REMARK  100  A    between atoms: _257  and  _258
REMARK  101  A    between atoms: _257  and  _260
REMARK  102  A    between atoms: _260  and  _261
REMARK  103  A    between atoms: _263  and  _265
REMARK  104  A    between atoms: _265  and  _266
REMARK  105  A    between atoms: _265  and  _268
REMARK  106  A    between atoms: _268  and  _269
REMARK  107  A    between atoms: _274  and  _276
REMARK  108  A    between atoms: _276  and  _277
REMARK  109  A    between atoms: _276  and  _279
REMARK  110  A    between atoms: _279  and  _280
REMARK  111  A    between atoms: _280  and  _281
REMARK  112  A    between atoms: _284  and  _286
REMARK  113  A    between atoms: _286  and  _287
REMARK  114  A    between atoms: _286  and  _289
REMARK  115  A    between atoms: _289  and  _290
REMARK  116  A    between atoms: _295  and  _296
REMARK  117  A    between atoms: _298  and  _300
REMARK  118  A    between atoms: _300  and  _301
REMARK  119  A    between atoms: _304  and  _306
REMARK  120  A    between atoms: _306  and  _307
REMARK  121  A    between atoms: _306  and  _309
REMARK  122  A    between atoms: _309  and  _310
REMARK  123  A    between atoms: _314  and  _315
REMARK  124  A    between atoms: _320  and  _322
REMARK  125  A    between atoms: _322  and  _323
REMARK  126  A    between atoms: _322  and  _325
REMARK  127  A    between atoms: _325  and  _326
REMARK  128  A    between atoms: _329  and  _331
REMARK  129  A    between atoms: _331  and  _332
REMARK  130  A    between atoms: _331  and  _334
REMARK  131  A    between atoms: _334  and  _335
REMARK  132  A    between atoms: _335  and  _336
REMARK  133  A    between atoms: _341  and  _343
REMARK  134  A    between atoms: _343  and  _344
REMARK  135  A    between atoms: _343  and  _346
REMARK  136  A    between atoms: _346  and  _347
REMARK  137  A    between atoms: _350  and  _352
REMARK  138  A    between atoms: _352  and  _353
REMARK  139  A    between atoms: _352  and  _355
REMARK  140  A    between atoms: _355  and  _356
REMARK  141  A    between atoms: _362  and  _364
REMARK  142  A    between atoms: _364  and  _365
REMARK  143  A    between atoms: _364  and  _367
REMARK  144  A    between atoms: _367  and  _368
REMARK  145  A    between atoms: _371  and  _373
REMARK  146  A    between atoms: _373  and  _374
REMARK  147  A    between atoms: _377  and  _379
REMARK  148  A    between atoms: _379  and  _380
REMARK  149  A    between atoms: _379  and  _382
REMARK  150  A    between atoms: _382  and  _383
REMARK  151  A    between atoms: _393  and  _395
REMARK  152  A    between atoms: _395  and  _396
REMARK  153  A    between atoms: _395  and  _398
REMARK  154  A    between atoms: _398  and  _399
REMARK  155  A    between atoms: _401  and  _403
REMARK  156  A    between atoms: _403  and  _404
REMARK  157  A    between atoms: _403  and  _406
REMARK  158  A    between atoms: _406  and  _407
REMARK  159  A    between atoms: _412  and  _413
REMARK  160  A    between atoms: _415  and  _417
REMARK  161  A    between atoms: _417  and  _418
REMARK  162  A    between atoms: _417  and  _420
REMARK  163  A    between atoms: _420  and  _421
REMARK  164  A    between atoms: _426  and  _427
REMARK  165  A    between atoms: _429  and  _431
REMARK  166  A    between atoms: _431  and  _432
REMARK  167  A    between atoms: _431  and  _434
REMARK  168  A    between atoms: _434  and  _435
REMARK  169  A    between atoms: _438  and  _440
REMARK  170  A    between atoms: _440  and  _441
REMARK  171  A    between atoms: _443  and  _445
REMARK  172  A    between atoms: _445  and  _446
REMARK  173  A    between atoms: _445  and  _448
REMARK  174  A    between atoms: _448  and  _449
REMARK  175  A    between atoms: _454  and  _455
REMARK  176  A    between atoms: _457  and  _459
REMARK  177  A    between atoms: _459  and  _460
REMARK  178  A    between atoms: _459  and  _462
REMARK  179  A    between atoms: _462  and  _463
REMARK  180  A    between atoms: _466  and  _468
REMARK  181  A    between atoms: _468  and  _469
REMARK  182  A    between atoms: _468  and  _471
REMARK  183  A    between atoms: _471  and  _472
REMARK  184  A    between atoms: _472  and  _473
REMARK  185  A    between atoms: _473  and  _474
REMARK  186  A    between atoms: _483  and  _485
REMARK  187  A    between atoms: _485  and  _486
REMARK  188  A    between atoms: _485  and  _488
REMARK  189  A    between atoms: _488  and  _489
REMARK  190  A    between atoms: _492  and  _494
REMARK  191  A    between atoms: _494  and  _495
REMARK  192  A    between atoms: _494  and  _497
REMARK  193  A    between atoms: _497  and  _498
REMARK  194  A    between atoms: _501  and  _503
REMARK  195  A    between atoms: _503  and  _504
REMARK  196  A    between atoms: _503  and  _506
REMARK  197  A    between atoms: _506  and  _507
REMARK  198  A    between atoms: _507  and  _508
REMARK  199  A    between atoms: _508  and  _509
REMARK  200  A    between atoms: _518  and  _520
REMARK  201  A    between atoms: _520  and  _521
REMARK  202  A    between atoms: _520  and  _523
REMARK  203  A    between atoms: _523  and  _524
REMARK  204  A    between atoms: _524  and  _525
REMARK  205  A    between atoms: _530  and  _532
REMARK  206  A    between atoms: _532  and  _533
REMARK  207  A    between atoms: _532  and  _535
REMARK  208  A    between atoms: _535  and  _536
REMARK  209  A    between atoms: _536  and  _537
REMARK  210  A    between atoms: _537  and  _538
REMARK  211  A    between atoms: _547  and  _549
REMARK  212  A    between atoms: _549  and  _550
REMARK  213  A    between atoms: _553  and  _555
REMARK  214  A    between atoms: _555  and  _556
REMARK  215  A    between atoms: _558  and  _560
REMARK  216  A    between atoms: _560  and  _561
REMARK  217  A    between atoms: _560  and  _563
REMARK  218  A    between atoms: _563  and  _564
REMARK  219  A    between atoms: _567  and  _569
REMARK  220  A    between atoms: _569  and  _570
REMARK  221  A    between atoms: _569  and  _572
REMARK  222  A    between atoms: _572  and  _573
REMARK  223  A    between atoms: _573  and  _574
REMARK  224  A    between atoms: _574  and  _575
REMARK  225  A    between atoms: _584  and  _586
REMARK  226  A    between atoms: _586  and  _587
REMARK  227  A    between atoms: _586  and  _589
REMARK  228  A    between atoms: _592  and  _594
REMARK  229  A    between atoms: _594  and  _595
REMARK  230  A    between atoms: _594  and  _597
REMARK  231  A    between atoms: _597  and  _598
REMARK  232  A    between atoms: _603  and  _604
REMARK  233  A    between atoms: _606  and  _608
REMARK  234  A    between atoms: _608  and  _609
REMARK  235  A    between atoms: _608  and  _611
REMARK  236  A    between atoms: _611  and  _612
REMARK  237  A    between atoms: _614  and  _616
REMARK  238  A    between atoms: _616  and  _617
REMARK  239  A    between atoms: _616  and  _619
REMARK  240  A    between atoms: _619  and  _620
REMARK  241  A    between atoms: _625  and  _627
REMARK  242  A    between atoms: _627  and  _628
REMARK  243  A    between atoms: _627  and  _630
REMARK  244  A    between atoms: _630  and  _631
REMARK  245  A    between atoms: _631  and  _632
REMARK  246  A    between atoms: _635  and  _637
REMARK  247  A    between atoms: _637  and  _638
REMARK  248  A    between atoms: _637  and  _640
REMARK  249  A    between atoms: _640  and  _641
REMARK  250  A    between atoms: _646  and  _647
REMARK  251  A    between atoms: _649  and  _651
REMARK  252  A    between atoms: _651  and  _652
REMARK  253  A    between atoms: _655  and  _657
REMARK  254  A    between atoms: _657  and  _658
REMARK  255  A    between atoms: _657  and  _660
REMARK  256  A    between atoms: _660  and  _661
REMARK  257  A    between atoms: _665  and  _666
REMARK  258  A    between atoms: _671  and  _673
REMARK  259  A    between atoms: _673  and  _674
REMARK  260  A    between atoms: _673  and  _676
REMARK  261  A    between atoms: _676  and  _677
REMARK  262  A    between atoms: _680  and  _682
REMARK  263  A    between atoms: _682  and  _683
REMARK  264  A    between atoms: _682  and  _685
REMARK  265  A    between atoms: _685  and  _686
REMARK  266  A    between atoms: _686  and  _687
REMARK  267  A    between atoms: _692  and  _694
REMARK  268  A    between atoms: _694  and  _695
REMARK  269  A    between atoms: _694  and  _697
REMARK  270  A    between atoms: _697  and  _698
REMARK  271  A    between atoms: _701  and  _703
REMARK  272  A    between atoms: _703  and  _704
REMARK  273  A    between atoms: _703  and  _706
REMARK  274  A    between atoms: _706  and  _707
REMARK  275  A    between atoms: _710  and  _712
REMARK  276  A    between atoms: _712  and  _713
REMARK  277  A    between atoms: _712  and  _715
REMARK  278  A    between atoms: _715  and  _716
REMARK                            x       y       z     vdW  Elec       q    Type
REMARK                         _______ _______ _______ _____ _____    ______ ____
ROOT
ATOM      1  O   HOH     1      37.953   5.823 -18.463  0.00  0.00    +0.000 OA
ENDROOT
TORSDOF 0
REMARK  Name = ../refined-set-2016/4ksy/4ksy_pocket.pdb
REMARK  278 active torsions:
REMARK  status: ('A' for Active; 'I' for Inactive)
REMARK    1  A    between atoms: _1  and  _3
REMARK    2  A    between atoms: _3  and  _4
REMARK    3  A    between atoms: _6  and  _8
REMARK    4  A    between atoms: _8  and  _9
REMARK    5  A    between atoms: _8  and  _11
REMARK    6  A    between atoms: _11  and  _12
REMARK    7  A    between atoms: _15  and  _17
REMARK    8  A    between atoms: _17  and  _18
REMARK    9  A    between atoms: _21  and  _23
REMARK   10  A    between atoms: _23  and  _24
REMARK   11  A    between atoms: _23  and  _26
REMARK   12  A    between atoms: _26  and  _27
REMARK   13  A    between atoms: _37  and  _39
REMARK   14  A    between atoms: _39  and  _40
REMARK   15  A    between atoms: _39  and  _42
REMARK   16  A    between atoms: _42  and  _43
REMARK   17  A    between atoms: _45  and  _47
REMARK   18  A    between atoms: _47  and  _48
REMARK   19  A    between atoms: _47  and  _50
REMARK   20  A    between atoms: _50  and  _51
REMARK   21  A    between atoms: _56  and  _57
REMARK   22  A    between atoms: _59  and  _61
REMARK   23  A    between atoms: _61  and  _62
REMARK   24  A    between atoms: _61  and  _64
REMARK   25  A    between atoms: _64  and  _65
REMARK   26  A    between atoms: _70  and  _71
REMARK   27  A    between atoms: _73  and  _75
REMARK   28  A    between atoms: _75  and  _76
REMARK   29  A    between atoms: _75  and  _78
REMARK   30  A    between atoms: _78  and  _79
REMARK   31  A    between atoms: _82  and  _84
REMARK   32  A    between atoms: _84  and  _85
REMARK   33  A    between atoms: _87  and  _89
REMARK   34  A    between atoms: _89  and  _90
REMARK   35  A    between atoms: _89  and  _92
REMARK   36  A    between atoms: _92  and  _93
REMARK   37  A    between atoms: _98  and  _99
REMARK   38  A    between atoms: _101  and  _103
REMARK   39  A    between atoms: _103  and  _104
REMARK   40  A    between atoms: _103  and  _106
REMARK   41  A    between atoms: _106  and  _107
REMARK   42  A    between atoms: _110  and  _112
REMARK   43  A    between atoms: _112  and  _113
REMARK   44  A    between atoms: _112  and  _115
REMARK   45  A    between atoms: _115  and  _116
REMARK   46  A    between atoms: _116  and  _117
REMARK   47  A    between atoms: _117  and  _118
REMARK   48  A    between atoms: _127  and  _129
REMARK   49  A    between atoms: _129  and  _130
REMARK   50  A    between atoms: _129  and  _132
REMARK   51  A    between atoms: _132  and  _133
REMARK   52  A    between atoms: _136  and  _138
REMARK   53  A    between atoms: _138  and  _139
REMARK   54  A    between atoms: _138  and  _141
REMARK   55  A    between atoms: _141  and  _142
REMARK   56  A    between atoms: _145  and  _147
REMARK   57  A    between atoms: _147  and  _148
REMARK   58  A    between atoms: _147  and  _150
REMARK   59  A    between atoms: _150  and  _151
REMARK   60  A    between atoms: _154  and  _156
REMARK   61  A    between atoms: _156  and  _157
REMARK   62  A    between atoms: _156  and  _159
REMARK   63  A    between atoms: _159  and  _160
REMARK   64  A    between atoms: _163  and  _165
REMARK   65  A    between atoms: _165  and  _166
REMARK   66  A    between atoms: _165  and  _168
REMARK   67  A    between atoms: _168  and  _169
REMARK   68  A    between atoms: _169  and  _170
REMARK   69  A    between atoms: _175  and  _177
REMARK   70  A    between atoms: _177  and  _178
REMARK   71  A    between atoms: _177  and  _180
REMARK   72  A    between atoms: _180  and  _181
REMARK   73  A    between atoms: _181  and  _182
REMARK   74  A    between atoms: _182  and  _183
REMARK   75  A    between atoms: _192  and  _194
REMARK   76  A    between atoms: _194  and  _195
REMARK   77  A    between atoms: _198  and  _200
REMARK   78  A    between atoms: _200  and  _201
REMARK   79  A    between atoms: _200  and  _203
REMARK   80  A    between atoms: _203  and  _204
REMARK   81  A    between atoms: _207  and  _209
REMARK   82  A    between atoms: _209  and  _210
REMARK   83  A    between atoms: _209  and  _212
REMARK   84  A    between atoms: _212  and  _213
REMARK   85  A    between atoms: _216  and  _218
REMARK   86  A    between atoms: _218  and  _219
REMARK   87  A    between atoms: _218  and  _221
REMARK   88  A    between atoms: _221  and  _222
REMARK   89  A    between atoms: _222  and  _223
REMARK   90  A    between atoms: _223  and  _224
REMARK   91  A    between atoms: _233  and  _235
REMARK   92  A    between atoms: _235  and  _236
REMARK   93  A    between atoms: _235  and  _238
REMARK   94  A    between atoms: _241  and  _243
REMARK   95  A    between atoms: _243  and  _244
REMARK   96  A    between atoms: _243  and  _246
REMARK   97  A    between atoms: _246  and  _247
REMARK   98  A    between atoms: _252  and  _253
REMARK   99  A    between atoms: _255  and  _257
REMARK  100  A    between atoms: _257  and  _258
REMARK  101  A    between atoms: _257  and  _260
REMARK  102  A    between atoms: _260  and  _261
REMARK  103  A    between atoms: _263  and  _265
REMARK  104  A    between atoms: _265  and  _266
REMARK  105  A    between atoms: _265  and  _268
REMARK  106  A    between atoms: _268  and  _269
REMARK  107  A    between atoms: _274  and  _276
REMARK  108  A    between atoms: _276  and  _277
REMARK  109  A    between atoms: _276  and  _279
REMARK  110  A    between atoms: _279  and  _280
REMARK  111  A    between atoms: _280  and  _281
REMARK  112  A    between atoms: _284  and  _286
REMARK  113  A    between atoms: _286  and  _287
REMARK  114  A    between atoms: _286  and  _289
REMARK  115  A    between atoms: _289  and  _290
REMARK  116  A    between atoms: _295  and  _296
REMARK  117  A    between atoms: _298  and  _300
REMARK  118  A    between atoms: _300  and  _301
REMARK  119  A    between atoms: _304  and  _306
REMARK  120  A    between atoms: _306  and  _307
REMARK  121  A    between atoms: _306  and  _309
REMARK  122  A    between atoms: _309  and  _310
REMARK  123  A    between atoms: _314  and  _315
REMARK  124  A    between atoms: _320  and  _322
REMARK  125  A    between atoms: _322  and  _323
REMARK  126  A    between atoms: _322  and  _325
REMARK  127  A    between atoms: _325  and  _326
REMARK  128  A    between atoms: _329  and  _331
REMARK  129  A    between atoms: _331  and  _332
REMARK  130  A    between atoms: _331  and  _334
REMARK  131  A    between atoms: _334  and  _335
REMARK  132  A    between atoms: _335  and  _336
REMARK  133  A    between atoms: _341  and  _343
REMARK  134  A    between atoms: _343  and  _344
REMARK  135  A    between atoms: _343  and  _346
REMARK  136  A    between atoms: _346  and  _347
REMARK  137  A    between atoms: _350  and  _352
REMARK  138  A    between atoms: _352  and  _353
REMARK  139  A    between atoms: _352  and  _355
REMARK  140  A    between atoms: _355  and  _356
REMARK  141  A    between atoms: _362  and  _364
REMARK  142  A    between atoms: _364  and  _365
REMARK  143  A    between atoms: _364  and  _367
REMARK  144  A    between atoms: _367  and  _368
REMARK  145  A    between atoms: _371  and  _373
REMARK  146  A    between atoms: _373  and  _374
REMARK  147  A    between atoms: _377  and  _379
REMARK  148  A    between atoms: _379  and  _380
REMARK  149  A    between atoms: _379  and  _382
REMARK  150  A    between atoms: _382  and  _383
REMARK  151  A    between atoms: _393  and  _395
REMARK  152  A    between atoms: _395  and  _396
REMARK  153  A    between atoms: _395  and  _398
REMARK  154  A    between atoms: _398  and  _399
REMARK  155  A    between atoms: _401  and  _403
REMARK  156  A    between atoms: _403  and  _404
REMARK  157  A    between atoms: _403  and  _406
REMARK  158  A    between atoms: _406  and  _407
REMARK  159  A    between atoms: _412  and  _413
REMARK  160  A    between atoms: _415  and  _417
REMARK  161  A    between atoms: _417  and  _418
REMARK  162  A    between atoms: _417  and  _420
REMARK  163  A    between atoms: _420  and  _421
REMARK  164  A    between atoms: _426  and  _427
REMARK  165  A    between atoms: _429  and  _431
REMARK  166  A    between atoms: _431  and  _432
REMARK  167  A    between atoms: _431  and  _434
REMARK  168  A    between atoms: _434  and  _435
REMARK  169  A    between atoms: _438  and  _440
REMARK  170  A    between atoms: _440  and  _441
REMARK  171  A    between atoms: _443  and  _445
REMARK  172  A    between atoms: _445  and  _446
REMARK  173  A    between atoms: _445  and  _448
REMARK  174  A    between atoms: _448  and  _449
REMARK  175  A    between atoms: _454  and  _455
REMARK  176  A    between atoms: _457  and  _459
REMARK  177  A    between atoms: _459  and  _460
REMARK  178  A    between atoms: _459  and  _462
REMARK  179  A    between atoms: _462  and  _463
REMARK  180  A    between atoms: _466  and  _468
REMARK  181  A    between atoms: _468  and  _469
REMARK  182  A    between atoms: _468  and  _471
REMARK  183  A    between atoms: _471  and  _472
REMARK  184  A    between atoms: _472  and  _473
REMARK  185  A    between atoms: _473  and  _474
REMARK  186  A    between atoms: _483  and  _485
REMARK  187  A    between atoms: _485  and  _486
REMARK  188  A    between atoms: _485  and  _488
REMARK  189  A    between atoms: _488  and  _489
REMARK  190  A    between atoms: _492  and  _494
REMARK  191  A    between atoms: _494  and  _495
REMARK  192  A    between atoms: _494  and  _497
REMARK  193  A    between atoms: _497  and  _498
REMARK  194  A    between atoms: _501  and  _503
REMARK  195  A    between atoms: _503  and  _504
REMARK  196  A    between atoms: _503  and  _506
REMARK  197  A    between atoms: _506  and  _507
REMARK  198  A    between atoms: _507  and  _508
REMARK  199  A    between atoms: _508  and  _509
REMARK  200  A    between atoms: _518  and  _520
REMARK  201  A    between atoms: _520  and  _521
REMARK  202  A    between atoms: _520  and  _523
REMARK  203  A    between atoms: _523  and  _524
REMARK  204  A    between atoms: _524  and  _525
REMARK  205  A    between atoms: _530  and  _532
REMARK  206  A    between atoms: _532  and  _533
REMARK  207  A    between atoms: _532  and  _535
REMARK  208  A    between atoms: _535  and  _536
REMARK  209  A    between atoms: _536  and  _537
REMARK  210  A    between atoms: _537  and  _538
REMARK  211  A    between atoms: _547  and  _549
REMARK  212  A    between atoms: _549  and  _550
REMARK  213  A    between atoms: _553  and  _555
REMARK  214  A    between atoms: _555  and  _556
REMARK  215  A    between atoms: _558  and  _560
REMARK  216  A    between atoms: _560  and  _561
REMARK  217  A    between atoms: _560  and  _563
REMARK  218  A    between atoms: _563  and  _564
REMARK  219  A    between atoms: _567  and  _569
REMARK  220  A    between atoms: _569  and  _570
REMARK  221  A    between atoms: _569  and  _572
REMARK  222  A    between atoms: _572  and  _573
REMARK  223  A    between atoms: _573  and  _574
REMARK  224  A    between atoms: _574  and  _575
REMARK  225  A    between atoms: _584  and  _586
REMARK  226  A    between atoms: _586  and  _587
REMARK  227  A    between atoms: _586  and  _589
REMARK  228  A    between atoms: _592  and  _594
REMARK  229  A    between atoms: _594  and  _595
REMARK  230  A    between atoms: _594  and  _597
REMARK  231  A    between atoms: _597  and  _598
REMARK  232  A    between atoms: _603  and  _604
REMARK  233  A    between atoms: _606  and  _608
REMARK  234  A    between atoms: _608  and  _609
REMARK  235  A    between atoms: _608  and  _611
REMARK  236  A    between atoms: _611  and  _612
REMARK  237  A    between atoms: _614  and  _616
REMARK  238  A    between atoms: _616  and  _617
REMARK  239  A    between atoms: _616  and  _619
REMARK  240  A    between atoms: _619  and  _620
REMARK  241  A    between atoms: _625  and  _627
REMARK  242  A    between atoms: _627  and  _628
REMARK  243  A    between atoms: _627  and  _630
REMARK  244  A    between atoms: _630  and  _631
REMARK  245  A    between atoms: _631  and  _632
REMARK  246  A    between atoms: _635  and  _637
REMARK  247  A    between atoms: _637  and  _638
REMARK  248  A    between atoms: _637  and  _640
REMARK  249  A    between atoms: _640  and  _641
REMARK  250  A    between atoms: _646  and  _647
REMARK  251  A    between atoms: _649  and  _651
REMARK  252  A    between atoms: _651  and  _652
REMARK  253  A    between atoms: _655  and  _657
REMARK  254  A    between atoms: _657  and  _658
REMARK  255  A    between atoms: _657  and  _660
REMARK  256  A    between atoms: _660  and  _661
REMARK  257  A    between atoms: _665  and  _666
REMARK  258  A    between atoms: _671  and  _673
REMARK  259  A    between atoms: _673  and  _674
REMARK  260  A    between atoms: _673  and  _676
REMARK  261  A    between atoms: _676  and  _677
REMARK  262  A    between atoms: _680  and  _682
REMARK  263  A    between atoms: _682  and  _683
REMARK  264  A    between atoms: _682  and  _685
REMARK  265  A    between atoms: _685  and  _686
REMARK  266  A    between atoms: _686  and  _687
REMARK  267  A    between atoms: _692  and  _694
REMARK  268  A    between atoms: _694  and  _695
REMARK  269  A    between atoms: _694  and  _697
REMARK  270  A    between atoms: _697  and  _698
REMARK  271  A    between atoms: _701  and  _703
REMARK  272  A    between atoms: _703  and  _704
REMARK  273  A    between atoms: _703  and  _706
REMARK  274  A    between atoms: _706  and  _707
REMARK  275  A    between atoms: _710  and  _712
REMARK  276  A    between atoms: _712  and  _713
REMARK  277  A    between atoms: _712  and  _715
REMARK  278  A    between atoms: _715  and  _716
REMARK                            x       y       z     vdW  Elec       q    Type
REMARK                         _______ _______ _______ _____ _____    ______ ____
ROOT
ATOM      1  O   HOH     1      44.444  14.161 -18.488  0.00  0.00    +0.000 OA
ENDROOT
TORSDOF 0
REMARK  Name = ../refined-set-2016/4ksy/4ksy_pocket.pdb
REMARK  278 active torsions:
REMARK  status: ('A' for Active; 'I' for Inactive)
REMARK    1  A    between atoms: _1  and  _3
REMARK    2  A    between atoms: _3  and  _4
REMARK    3  A    between atoms: _6  and  _8
REMARK    4  A    between atoms: _8  and  _9
REMARK    5  A    between atoms: _8  and  _11
REMARK    6  A    between atoms: _11  and  _12
REMARK    7  A    between atoms: _15  and  _17
REMARK    8  A    between atoms: _17  and  _18
REMARK    9  A    between atoms: _21  and  _23
REMARK   10  A    between atoms: _23  and  _24
REMARK   11  A    between atoms: _23  and  _26
REMARK   12  A    between atoms: _26  and  _27
REMARK   13  A    between atoms: _37  and  _39
REMARK   14  A    between atoms: _39  and  _40
REMARK   15  A    between atoms: _39  and  _42
REMARK   16  A    between atoms: _42  and  _43
REMARK   17  A    between atoms: _45  and  _47
REMARK   18  A    between atoms: _47  and  _48
REMARK   19  A    between atoms: _47  and  _50
REMARK   20  A    between atoms: _50  and  _51
REMARK   21  A    between atoms: _56  and  _57
REMARK   22  A    between atoms: _59  and  _61
REMARK   23  A    between atoms: _61  and  _62
REMARK   24  A    between atoms: _61  and  _64
REMARK   25  A    between atoms: _64  and  _65
REMARK   26  A    between atoms: _70  and  _71
REMARK   27  A    between atoms: _73  and  _75
REMARK   28  A    between atoms: _75  and  _76
REMARK   29  A    between atoms: _75  and  _78
REMARK   30  A    between atoms: _78  and  _79
REMARK   31  A    between atoms: _82  and  _84
REMARK   32  A    between atoms: _84  and  _85
REMARK   33  A    between atoms: _87  and  _89
REMARK   34  A    between atoms: _89  and  _90
REMARK   35  A    between atoms: _89  and  _92
REMARK   36  A    between atoms: _92  and  _93
REMARK   37  A    between atoms: _98  and  _99
REMARK   38  A    between atoms: _101  and  _103
REMARK   39  A    between atoms: _103  and  _104
REMARK   40  A    between atoms: _103  and  _106
REMARK   41  A    between atoms: _106  and  _107
REMARK   42  A    between atoms: _110  and  _112
REMARK   43  A    between atoms: _112  and  _113
REMARK   44  A    between atoms: _112  and  _115
REMARK   45  A    between atoms: _115  and  _116
REMARK   46  A    between atoms: _116  and  _117
REMARK   47  A    between atoms: _117  and  _118
REMARK   48  A    between atoms: _127  and  _129
REMARK   49  A    between atoms: _129  and  _130
REMARK   50  A    between atoms: _129  and  _132
REMARK   51  A    between atoms: _132  and  _133
REMARK   52  A    between atoms: _136  and  _138
REMARK   53  A    between atoms: _138  and  _139
REMARK   54  A    between atoms: _138  and  _141
REMARK   55  A    between atoms: _141  and  _142
REMARK   56  A    between atoms: _145  and  _147
REMARK   57  A    between atoms: _147  and  _148
REMARK   58  A    between atoms: _147  and  _150
REMARK   59  A    between atoms: _150  and  _151
REMARK   60  A    between atoms: _154  and  _156
REMARK   61  A    between atoms: _156  and  _157
REMARK   62  A    between atoms: _156  and  _159
REMARK   63  A    between atoms: _159  and  _160
REMARK   64  A    between atoms: _163  and  _165
REMARK   65  A    between atoms: _165  and  _166
REMARK   66  A    between atoms: _165  and  _168
REMARK   67  A    between atoms: _168  and  _169
REMARK   68  A    between atoms: _169  and  _170
REMARK   69  A    between atoms: _175  and  _177
REMARK   70  A    between atoms: _177  and  _178
REMARK   71  A    between atoms: _177  and  _180
REMARK   72  A    between atoms: _180  and  _181
REMARK   73  A    between atoms: _181  and  _182
REMARK   74  A    between atoms: _182  and  _183
REMARK   75  A    between atoms: _192  and  _194
REMARK   76  A    between atoms: _194  and  _195
REMARK   77  A    between atoms: _198  and  _200
REMARK   78  A    between atoms: _200  and  _201
REMARK   79  A    between atoms: _200  and  _203
REMARK   80  A    between atoms: _203  and  _204
REMARK   81  A    between atoms: _207  and  _209
REMARK   82  A    between atoms: _209  and  _210
REMARK   83  A    between atoms: _209  and  _212
REMARK   84  A    between atoms: _212  and  _213
REMARK   85  A    between atoms: _216  and  _218
REMARK   86  A    between atoms: _218  and  _219
REMARK   87  A    between atoms: _218  and  _221
REMARK   88  A    between atoms: _221  and  _222
REMARK   89  A    between atoms: _222  and  _223
REMARK   90  A    between atoms: _223  and  _224
REMARK   91  A    between atoms: _233  and  _235
REMARK   92  A    between atoms: _235  and  _236
REMARK   93  A    between atoms: _235  and  _238
REMARK   94  A    between atoms: _241  and  _243
REMARK   95  A    between atoms: _243  and  _244
REMARK   96  A    between atoms: _243  and  _246
REMARK   97  A    between atoms: _246  and  _247
REMARK   98  A    between atoms: _252  and  _253
REMARK   99  A    between atoms: _255  and  _257
REMARK  100  A    between atoms: _257  and  _258
REMARK  101  A    between atoms: _257  and  _260
REMARK  102  A    between atoms: _260  and  _261
REMARK  103  A    between atoms: _263  and  _265
REMARK  104  A    between atoms: _265  and  _266
REMARK  105  A    between atoms: _265  and  _268
REMARK  106  A    between atoms: _268  and  _269
REMARK  107  A    between atoms: _274  and  _276
REMARK  108  A    between atoms: _276  and  _277
REMARK  109  A    between atoms: _276  and  _279
REMARK  110  A    between atoms: _279  and  _280
REMARK  111  A    between atoms: _280  and  _281
REMARK  112  A    between atoms: _284  and  _286
REMARK  113  A    between atoms: _286  and  _287
REMARK  114  A    between atoms: _286  and  _289
REMARK  115  A    between atoms: _289  and  _290
REMARK  116  A    between atoms: _295  and  _296
REMARK  117  A    between atoms: _298  and  _300
REMARK  118  A    between atoms: _300  and  _301
REMARK  119  A    between atoms: _304  and  _306
REMARK  120  A    between atoms: _306  and  _307
REMARK  121  A    between atoms: _306  and  _309
REMARK  122  A    between atoms: _309  and  _310
REMARK  123  A    between atoms: _314  and  _315
REMARK  124  A    between atoms: _320  and  _322
REMARK  125  A    between atoms: _322  and  _323
REMARK  126  A    between atoms: _322  and  _325
REMARK  127  A    between atoms: _325  and  _326
REMARK  128  A    between atoms: _329  and  _331
REMARK  129  A    between atoms: _331  and  _332
REMARK  130  A    between atoms: _331  and  _334
REMARK  131  A    between atoms: _334  and  _335
REMARK  132  A    between atoms: _335  and  _336
REMARK  133  A    between atoms: _341  and  _343
REMARK  134  A    between atoms: _343  and  _344
REMARK  135  A    between atoms: _343  and  _346
REMARK  136  A    between atoms: _346  and  _347
REMARK  137  A    between atoms: _350  and  _352
REMARK  138  A    between atoms: _352  and  _353
REMARK  139  A    between atoms: _352  and  _355
REMARK  140  A    between atoms: _355  and  _356
REMARK  141  A    between atoms: _362  and  _364
REMARK  142  A    between atoms: _364  and  _365
REMARK  143  A    between atoms: _364  and  _367
REMARK  144  A    between atoms: _367  and  _368
REMARK  145  A    between atoms: _371  and  _373
REMARK  146  A    between atoms: _373  and  _374
REMARK  147  A    between atoms: _377  and  _379
REMARK  148  A    between atoms: _379  and  _380
REMARK  149  A    between atoms: _379  and  _382
REMARK  150  A    between atoms: _382  and  _383
REMARK  151  A    between atoms: _393  and  _395
REMARK  152  A    between atoms: _395  and  _396
REMARK  153  A    between atoms: _395  and  _398
REMARK  154  A    between atoms: _398  and  _399
REMARK  155  A    between atoms: _401  and  _403
REMARK  156  A    between atoms: _403  and  _404
REMARK  157  A    between atoms: _403  and  _406
REMARK  158  A    between atoms: _406  and  _407
REMARK  159  A    between atoms: _412  and  _413
REMARK  160  A    between atoms: _415  and  _417
REMARK  161  A    between atoms: _417  and  _418
REMARK  162  A    between atoms: _417  and  _420
REMARK  163  A    between atoms: _420  and  _421
REMARK  164  A    between atoms: _426  and  _427
REMARK  165  A    between atoms: _429  and  _431
REMARK  166  A    between atoms: _431  and  _432
REMARK  167  A    between atoms: _431  and  _434
REMARK  168  A    between atoms: _434  and  _435
REMARK  169  A    between atoms: _438  and  _440
REMARK  170  A    between atoms: _440  and  _441
REMARK  171  A    between atoms: _443  and  _445
REMARK  172  A    between atoms: _445  and  _446
REMARK  173  A    between atoms: _445  and  _448
REMARK  174  A    between atoms: _448  and  _449
REMARK  175  A    between atoms: _454  and  _455
REMARK  176  A    between atoms: _457  and  _459
REMARK  177  A    between atoms: _459  and  _460
REMARK  178  A    between atoms: _459  and  _462
REMARK  179  A    between atoms: _462  and  _463
REMARK  180  A    between atoms: _466  and  _468
REMARK  181  A    between atoms: _468  and  _469
REMARK  182  A    between atoms: _468  and  _471
REMARK  183  A    between atoms: _471  and  _472
REMARK  184  A    between atoms: _472  and  _473
REMARK  185  A    between atoms: _473  and  _474
REMARK  186  A    between atoms: _483  and  _485
REMARK  187  A    between atoms: _485  and  _486
REMARK  188  A    between atoms: _485  and  _488
REMARK  189  A    between atoms: _488  and  _489
REMARK  190  A    between atoms: _492  and  _494
REMARK  191  A    between atoms: _494  and  _495
REMARK  192  A    between atoms: _494  and  _497
REMARK  193  A    between atoms: _497  and  _498
REMARK  194  A    between atoms: _501  and  _503
REMARK  195  A    between atoms: _503  and  _504
REMARK  196  A    between atoms: _503  and  _506
REMARK  197  A    between atoms: _506  and  _507
REMARK  198  A    between atoms: _507  and  _508
REMARK  199  A    between atoms: _508  and  _509
REMARK  200  A    between atoms: _518  and  _520
REMARK  201  A    between atoms: _520  and  _521
REMARK  202  A    between atoms: _520  and  _523
REMARK  203  A    between atoms: _523  and  _524
REMARK  204  A    between atoms: _524  and  _525
REMARK  205  A    between atoms: _530  and  _532
REMARK  206  A    between atoms: _532  and  _533
REMARK  207  A    between atoms: _532  and  _535
REMARK  208  A    between atoms: _535  and  _536
REMARK  209  A    between atoms: _536  and  _537
REMARK  210  A    between atoms: _537  and  _538
REMARK  211  A    between atoms: _547  and  _549
REMARK  212  A    between atoms: _549  and  _550
REMARK  213  A    between atoms: _553  and  _555
REMARK  214  A    between atoms: _555  and  _556
REMARK  215  A    between atoms: _558  and  _560
REMARK  216  A    between atoms: _560  and  _561
REMARK  217  A    between atoms: _560  and  _563
REMARK  218  A    between atoms: _563  and  _564
REMARK  219  A    between atoms: _567  and  _569
REMARK  220  A    between atoms: _569  and  _570
REMARK  221  A    between atoms: _569  and  _572
REMARK  222  A    between atoms: _572  and  _573
REMARK  223  A    between atoms: _573  and  _574
REMARK  224  A    between atoms: _574  and  _575
REMARK  225  A    between atoms: _584  and  _586
REMARK  226  A    between atoms: _586  and  _587
REMARK  227  A    between atoms: _586  and  _589
REMARK  228  A    between atoms: _592  and  _594
REMARK  229  A    between atoms: _594  and  _595
REMARK  230  A    between atoms: _594  and  _597
REMARK  231  A    between atoms: _597  and  _598
REMARK  232  A    between atoms: _603  and  _604
REMARK  233  A    between atoms: _606  and  _608
REMARK  234  A    between atoms: _608  and  _609
REMARK  235  A    between atoms: _608  and  _611
REMARK  236  A    between atoms: _611  and  _612
REMARK  237  A    between atoms: _614  and  _616
REMARK  238  A    between atoms: _616  and  _617
REMARK  239  A    between atoms: _616  and  _619
REMARK  240  A    between atoms: _619  and  _620
REMARK  241  A    between atoms: _625  and  _627
REMARK  242  A    between atoms: _627  and  _628
REMARK  243  A    between atoms: _627  and  _630
REMARK  244  A    between atoms: _630  and  _631
REMARK  245  A    between atoms: _631  and  _632
REMARK  246  A    between atoms: _635  and  _637
REMARK  247  A    between atoms: _637  and  _638
REMARK  248  A    between atoms: _637  and  _640
REMARK  249  A    between atoms: _640  and  _641
REMARK  250  A    between atoms: _646  and  _647
REMARK  251  A    between atoms: _649  and  _651
REMARK  252  A    between atoms: _651  and  _652
REMARK  253  A    between atoms: _655  and  _657
REMARK  254  A    between atoms: _657  and  _658
REMARK  255  A    between atoms: _657  and  _660
REMARK  256  A    between atoms: _660  and  _661
REMARK  257  A    between atoms: _665  and  _666
REMARK  258  A    between atoms: _671  and  _673
REMARK  259  A    between atoms: _673  and  _674
REMARK  260  A    between atoms: _673  and  _676
REMARK  261  A    between atoms: _676  and  _677
REMARK  262  A    between atoms: _680  and  _682
REMARK  263  A    between atoms: _682  and  _683
REMARK  264  A    between atoms: _682  and  _685
REMARK  265  A    between atoms: _685  and  _686
REMARK  266  A    between atoms: _686  and  _687
REMARK  267  A    between atoms: _692  and  _694
REMARK  268  A    between atoms: _694  and  _695
REMARK  269  A    between atoms: _694  and  _697
REMARK  270  A    between atoms: _697  and  _698
REMARK  271  A    between atoms: _701  and  _703
REMARK  272  A    between atoms: _703  and  _704
REMARK  273  A    between atoms: _703  and  _706
REMARK  274  A    between atoms: _706  and  _707
REMARK  275  A    between atoms: _710  and  _712
REMARK  276  A    between atoms: _712  and  _713
REMARK  277  A    between atoms: _712  and  _715
REMARK  278  A    between atoms: _715  and  _716
REMARK                            x       y       z     vdW  Elec       q    Type
REMARK                         _______ _______ _______ _____ _____    ______ ____
ROOT
ATOM      1  O   HOH     1      52.691   8.459 -13.642  0.00  0.00    +0.000 OA
ENDROOT
TORSDOF 0
REMARK  Name = ../refined-set-2016/4ksy/4ksy_pocket.pdb
REMARK  278 active torsions:
REMARK  status: ('A' for Active; 'I' for Inactive)
REMARK    1  A    between atoms: _1  and  _3
REMARK    2  A    between atoms: _3  and  _4
REMARK    3  A    between atoms: _6  and  _8
REMARK    4  A    between atoms: _8  and  _9
REMARK    5  A    between atoms: _8  and  _11
REMARK    6  A    between atoms: _11  and  _12
REMARK    7  A    between atoms: _15  and  _17
REMARK    8  A    between atoms: _17  and  _18
REMARK    9  A    between atoms: _21  and  _23
REMARK   10  A    between atoms: _23  and  _24
REMARK   11  A    between atoms: _23  and  _26
REMARK   12  A    between atoms: _26  and  _27
REMARK   13  A    between atoms: _37  and  _39
REMARK   14  A    between atoms: _39  and  _40
REMARK   15  A    between atoms: _39  and  _42
REMARK   16  A    between atoms: _42  and  _43
REMARK   17  A    between atoms: _45  and  _47
REMARK   18  A    between atoms: _47  and  _48
REMARK   19  A    between atoms: _47  and  _50
REMARK   20  A    between atoms: _50  and  _51
REMARK   21  A    between atoms: _56  and  _57
REMARK   22  A    between atoms: _59  and  _61
REMARK   23  A    between atoms: _61  and  _62
REMARK   24  A    between atoms: _61  and  _64
REMARK   25  A    between atoms: _64  and  _65
REMARK   26  A    between atoms: _70  and  _71
REMARK   27  A    between atoms: _73  and  _75
REMARK   28  A    between atoms: _75  and  _76
REMARK   29  A    between atoms: _75  and  _78
REMARK   30  A    between atoms: _78  and  _79
REMARK   31  A    between atoms: _82  and  _84
REMARK   32  A    between atoms: _84  and  _85
REMARK   33  A    between atoms: _87  and  _89
REMARK   34  A    between atoms: _89  and  _90
REMARK   35  A    between atoms: _89  and  _92
REMARK   36  A    between atoms: _92  and  _93
REMARK   37  A    between atoms: _98  and  _99
REMARK   38  A    between atoms: _101  and  _103
REMARK   39  A    between atoms: _103  and  _104
REMARK   40  A    between atoms: _103  and  _106
REMARK   41  A    between atoms: _106  and  _107
REMARK   42  A    between atoms: _110  and  _112
REMARK   43  A    between atoms: _112  and  _113
REMARK   44  A    between atoms: _112  and  _115
REMARK   45  A    between atoms: _115  and  _116
REMARK   46  A    between atoms: _116  and  _117
REMARK   47  A    between atoms: _117  and  _118
REMARK   48  A    between atoms: _127  and  _129
REMARK   49  A    between atoms: _129  and  _130
REMARK   50  A    between atoms: _129  and  _132
REMARK   51  A    between atoms: _132  and  _133
REMARK   52  A    between atoms: _136  and  _138
REMARK   53  A    between atoms: _138  and  _139
REMARK   54  A    between atoms: _138  and  _141
REMARK   55  A    between atoms: _141  and  _142
REMARK   56  A    between atoms: _145  and  _147
REMARK   57  A    between atoms: _147  and  _148
REMARK   58  A    between atoms: _147  and  _150
REMARK   59  A    between atoms: _150  and  _151
REMARK   60  A    between atoms: _154  and  _156
REMARK   61  A    between atoms: _156  and  _157
REMARK   62  A    between atoms: _156  and  _159
REMARK   63  A    between atoms: _159  and  _160
REMARK   64  A    between atoms: _163  and  _165
REMARK   65  A    between atoms: _165  and  _166
REMARK   66  A    between atoms: _165  and  _168
REMARK   67  A    between atoms: _168  and  _169
REMARK   68  A    between atoms: _169  and  _170
REMARK   69  A    between atoms: _175  and  _177
REMARK   70  A    between atoms: _177  and  _178
REMARK   71  A    between atoms: _177  and  _180
REMARK   72  A    between atoms: _180  and  _181
REMARK   73  A    between atoms: _181  and  _182
REMARK   74  A    between atoms: _182  and  _183
REMARK   75  A    between atoms: _192  and  _194
REMARK   76  A    between atoms: _194  and  _195
REMARK   77  A    between atoms: _198  and  _200
REMARK   78  A    between atoms: _200  and  _201
REMARK   79  A    between atoms: _200  and  _203
REMARK   80  A    between atoms: _203  and  _204
REMARK   81  A    between atoms: _207  and  _209
REMARK   82  A    between atoms: _209  and  _210
REMARK   83  A    between atoms: _209  and  _212
REMARK   84  A    between atoms: _212  and  _213
REMARK   85  A    between atoms: _216  and  _218
REMARK   86  A    between atoms: _218  and  _219
REMARK   87  A    between atoms: _218  and  _221
REMARK   88  A    between atoms: _221  and  _222
REMARK   89  A    between atoms: _222  and  _223
REMARK   90  A    between atoms: _223  and  _224
REMARK   91  A    between atoms: _233  and  _235
REMARK   92  A    between atoms: _235  and  _236
REMARK   93  A    between atoms: _235  and  _238
REMARK   94  A    between atoms: _241  and  _243
REMARK   95  A    between atoms: _243  and  _244
REMARK   96  A    between atoms: _243  and  _246
REMARK   97  A    between atoms: _246  and  _247
REMARK   98  A    between atoms: _252  and  _253
REMARK   99  A    between atoms: _255  and  _257
REMARK  100  A    between atoms: _257  and  _258
REMARK  101  A    between atoms: _257  and  _260
REMARK  102  A    between atoms: _260  and  _261
REMARK  103  A    between atoms: _263  and  _265
REMARK  104  A    between atoms: _265  and  _266
REMARK  105  A    between atoms: _265  and  _268
REMARK  106  A    between atoms: _268  and  _269
REMARK  107  A    between atoms: _274  and  _276
REMARK  108  A    between atoms: _276  and  _277
REMARK  109  A    between atoms: _276  and  _279
REMARK  110  A    between atoms: _279  and  _280
REMARK  111  A    between atoms: _280  and  _281
REMARK  112  A    between atoms: _284  and  _286
REMARK  113  A    between atoms: _286  and  _287
REMARK  114  A    between atoms: _286  and  _289
REMARK  115  A    between atoms: _289  and  _290
REMARK  116  A    between atoms: _295  and  _296
REMARK  117  A    between atoms: _298  and  _300
REMARK  118  A    between atoms: _300  and  _301
REMARK  119  A    between atoms: _304  and  _306
REMARK  120  A    between atoms: _306  and  _307
REMARK  121  A    between atoms: _306  and  _309
REMARK  122  A    between atoms: _309  and  _310
REMARK  123  A    between atoms: _314  and  _315
REMARK  124  A    between atoms: _320  and  _322
REMARK  125  A    between atoms: _322  and  _323
REMARK  126  A    between atoms: _322  and  _325
REMARK  127  A    between atoms: _325  and  _326
REMARK  128  A    between atoms: _329  and  _331
REMARK  129  A    between atoms: _331  and  _332
REMARK  130  A    between atoms: _331  and  _334
REMARK  131  A    between atoms: _334  and  _335
REMARK  132  A    between atoms: _335  and  _336
REMARK  133  A    between atoms: _341  and  _343
REMARK  134  A    between atoms: _343  and  _344
REMARK  135  A    between atoms: _343  and  _346
REMARK  136  A    between atoms: _346  and  _347
REMARK  137  A    between atoms: _350  and  _352
REMARK  138  A    between atoms: _352  and  _353
REMARK  139  A    between atoms: _352  and  _355
REMARK  140  A    between atoms: _355  and  _356
REMARK  141  A    between atoms: _362  and  _364
REMARK  142  A    between atoms: _364  and  _365
REMARK  143  A    between atoms: _364  and  _367
REMARK  144  A    between atoms: _367  and  _368
REMARK  145  A    between atoms: _371  and  _373
REMARK  146  A    between atoms: _373  and  _374
REMARK  147  A    between atoms: _377  and  _379
REMARK  148  A    between atoms: _379  and  _380
REMARK  149  A    between atoms: _379  and  _382
REMARK  150  A    between atoms: _382  and  _383
REMARK  151  A    between atoms: _393  and  _395
REMARK  152  A    between atoms: _395  and  _396
REMARK  153  A    between atoms: _395  and  _398
REMARK  154  A    between atoms: _398  and  _399
REMARK  155  A    between atoms: _401  and  _403
REMARK  156  A    between atoms: _403  and  _404
REMARK  157  A    between atoms: _403  and  _406
REMARK  158  A    between atoms: _406  and  _407
REMARK  159  A    between atoms: _412  and  _413
REMARK  160  A    between atoms: _415  and  _417
REMARK  161  A    between atoms: _417  and  _418
REMARK  162  A    between atoms: _417  and  _420
REMARK  163  A    between atoms: _420  and  _421
REMARK  164  A    between atoms: _426  and  _427
REMARK  165  A    between atoms: _429  and  _431
REMARK  166  A    between atoms: _431  and  _432
REMARK  167  A    between atoms: _431  and  _434
REMARK  168  A    between atoms: _434  and  _435
REMARK  169  A    between atoms: _438  and  _440
REMARK  170  A    between atoms: _440  and  _441
REMARK  171  A    between atoms: _443  and  _445
REMARK  172  A    between atoms: _445  and  _446
REMARK  173  A    between atoms: _445  and  _448
REMARK  174  A    between atoms: _448  and  _449
REMARK  175  A    between atoms: _454  and  _455
REMARK  176  A    between atoms: _457  and  _459
REMARK  177  A    between atoms: _459  and  _460
REMARK  178  A    between atoms: _459  and  _462
REMARK  179  A    between atoms: _462  and  _463
REMARK  180  A    between atoms: _466  and  _468
REMARK  181  A    between atoms: _468  and  _469
REMARK  182  A    between atoms: _468  and  _471
REMARK  183  A    between atoms: _471  and  _472
REMARK  184  A    between atoms: _472  and  _473
REMARK  185  A    between atoms: _473  and  _474
REMARK  186  A    between atoms: _483  and  _485
REMARK  187  A    between atoms: _485  and  _486
REMARK  188  A    between atoms: _485  and  _488
REMARK  189  A    between atoms: _488  and  _489
REMARK  190  A    between atoms: _492  and  _494
REMARK  191  A    between atoms: _494  and  _495
REMARK  192  A    between atoms: _494  and  _497
REMARK  193  A    between atoms: _497  and  _498
REMARK  194  A    between atoms: _501  and  _503
REMARK  195  A    between atoms: _503  and  _504
REMARK  196  A    between atoms: _503  and  _506
REMARK  197  A    between atoms: _506  and  _507
REMARK  198  A    between atoms: _507  and  _508
REMARK  199  A    between atoms: _508  and  _509
REMARK  200  A    between atoms: _518  and  _520
REMARK  201  A    between atoms: _520  and  _521
REMARK  202  A    between atoms: _520  and  _523
REMARK  203  A    between atoms: _523  and  _524
REMARK  204  A    between atoms: _524  and  _525
REMARK  205  A    between atoms: _530  and  _532
REMARK  206  A    between atoms: _532  and  _533
REMARK  207  A    between atoms: _532  and  _535
REMARK  208  A    between atoms: _535  and  _536
REMARK  209  A    between atoms: _536  and  _537
REMARK  210  A    between atoms: _537  and  _538
REMARK  211  A    between atoms: _547  and  _549
REMARK  212  A    between atoms: _549  and  _550
REMARK  213  A    between atoms: _553  and  _555
REMARK  214  A    between atoms: _555  and  _556
REMARK  215  A    between atoms: _558  and  _560
REMARK  216  A    between atoms: _560  and  _561
REMARK  217  A    between atoms: _560  and  _563
REMARK  218  A    between atoms: _563  and  _564
REMARK  219  A    between atoms: _567  and  _569
REMARK  220  A    between atoms: _569  and  _570
REMARK  221  A    between atoms: _569  and  _572
REMARK  222  A    between atoms: _572  and  _573
REMARK  223  A    between atoms: _573  and  _574
REMARK  224  A    between atoms: _574  and  _575
REMARK  225  A    between atoms: _584  and  _586
REMARK  226  A    between atoms: _586  and  _587
REMARK  227  A    between atoms: _586  and  _589
REMARK  228  A    between atoms: _592  and  _594
REMARK  229  A    between atoms: _594  and  _595
REMARK  230  A    between atoms: _594  and  _597
REMARK  231  A    between atoms: _597  and  _598
REMARK  232  A    between atoms: _603  and  _604
REMARK  233  A    between atoms: _606  and  _608
REMARK  234  A    between atoms: _608  and  _609
REMARK  235  A    between atoms: _608  and  _611
REMARK  236  A    between atoms: _611  and  _612
REMARK  237  A    between atoms: _614  and  _616
REMARK  238  A    between atoms: _616  and  _617
REMARK  239  A    between atoms: _616  and  _619
REMARK  240  A    between atoms: _619  and  _620
REMARK  241  A    between atoms: _625  and  _627
REMARK  242  A    between atoms: _627  and  _628
REMARK  243  A    between atoms: _627  and  _630
REMARK  244  A    between atoms: _630  and  _631
REMARK  245  A    between atoms: _631  and  _632
REMARK  246  A    between atoms: _635  and  _637
REMARK  247  A    between atoms: _637  and  _638
REMARK  248  A    between atoms: _637  and  _640
REMARK  249  A    between atoms: _640  and  _641
REMARK  250  A    between atoms: _646  and  _647
REMARK  251  A    between atoms: _649  and  _651
REMARK  252  A    between atoms: _651  and  _652
REMARK  253  A    between atoms: _655  and  _657
REMARK  254  A    between atoms: _657  and  _658
REMARK  255  A    between atoms: _657  and  _660
REMARK  256  A    between atoms: _660  and  _661
REMARK  257  A    between atoms: _665  and  _666
REMARK  258  A    between atoms: _671  and  _673
REMARK  259  A    between atoms: _673  and  _674
REMARK  260  A    between atoms: _673  and  _676
REMARK  261  A    between atoms: _676  and  _677
REMARK  262  A    between atoms: _680  and  _682
REMARK  263  A    between atoms: _682  and  _683
REMARK  264  A    between atoms: _682  and  _685
REMARK  265  A    between atoms: _685  and  _686
REMARK  266  A    between atoms: _686  and  _687
REMARK  267  A    between atoms: _692  and  _694
REMARK  268  A    between atoms: _694  and  _695
REMARK  269  A    between atoms: _694  and  _697
REMARK  270  A    between atoms: _697  and  _698
REMARK  271  A    between atoms: _701  and  _703
REMARK  272  A    between atoms: _703  and  _704
REMARK  273  A    between atoms: _703  and  _706
REMARK  274  A    between atoms: _706  and  _707
REMARK  275  A    between atoms: _710  and  _712
REMARK  276  A    between atoms: _712  and  _713
REMARK  277  A    between atoms: _712  and  _715
REMARK  278  A    between atoms: _715  and  _716
REMARK                            x       y       z     vdW  Elec       q    Type
REMARK                         _______ _______ _______ _____ _____    ______ ____
ROOT
ATOM      1  O   HOH     1      47.016  11.014 -19.263  0.00  0.00    +0.000 OA
ENDROOT
TORSDOF 0
REMARK  Name = ../refined-set-2016/4ksy/4ksy_pocket.pdb
REMARK  278 active torsions:
REMARK  status: ('A' for Active; 'I' for Inactive)
REMARK    1  A    between atoms: _1  and  _3
REMARK    2  A    between atoms: _3  and  _4
REMARK    3  A    between atoms: _6  and  _8
REMARK    4  A    between atoms: _8  and  _9
REMARK    5  A    between atoms: _8  and  _11
REMARK    6  A    between atoms: _11  and  _12
REMARK    7  A    between atoms: _15  and  _17
REMARK    8  A    between atoms: _17  and  _18
REMARK    9  A    between atoms: _21  and  _23
REMARK   10  A    between atoms: _23  and  _24
REMARK   11  A    between atoms: _23  and  _26
REMARK   12  A    between atoms: _26  and  _27
REMARK   13  A    between atoms: _37  and  _39
REMARK   14  A    between atoms: _39  and  _40
REMARK   15  A    between atoms: _39  and  _42
REMARK   16  A    between atoms: _42  and  _43
REMARK   17  A    between atoms: _45  and  _47
REMARK   18  A    between atoms: _47  and  _48
REMARK   19  A    between atoms: _47  and  _50
REMARK   20  A    between atoms: _50  and  _51
REMARK   21  A    between atoms: _56  and  _57
REMARK   22  A    between atoms: _59  and  _61
REMARK   23  A    between atoms: _61  and  _62
REMARK   24  A    between atoms: _61  and  _64
REMARK   25  A    between atoms: _64  and  _65
REMARK   26  A    between atoms: _70  and  _71
REMARK   27  A    between atoms: _73  and  _75
REMARK   28  A    between atoms: _75  and  _76
REMARK   29  A    between atoms: _75  and  _78
REMARK   30  A    between atoms: _78  and  _79
REMARK   31  A    between atoms: _82  and  _84
REMARK   32  A    between atoms: _84  and  _85
REMARK   33  A    between atoms: _87  and  _89
REMARK   34  A    between atoms: _89  and  _90
REMARK   35  A    between atoms: _89  and  _92
REMARK   36  A    between atoms: _92  and  _93
REMARK   37  A    between atoms: _98  and  _99
REMARK   38  A    between atoms: _101  and  _103
REMARK   39  A    between atoms: _103  and  _104
REMARK   40  A    between atoms: _103  and  _106
REMARK   41  A    between atoms: _106  and  _107
REMARK   42  A    between atoms: _110  and  _112
REMARK   43  A    between atoms: _112  and  _113
REMARK   44  A    between atoms: _112  and  _115
REMARK   45  A    between atoms: _115  and  _116
REMARK   46  A    between atoms: _116  and  _117
REMARK   47  A    between atoms: _117  and  _118
REMARK   48  A    between atoms: _127  and  _129
REMARK   49  A    between atoms: _129  and  _130
REMARK   50  A    between atoms: _129  and  _132
REMARK   51  A    between atoms: _132  and  _133
REMARK   52  A    between atoms: _136  and  _138
REMARK   53  A    between atoms: _138  and  _139
REMARK   54  A    between atoms: _138  and  _141
REMARK   55  A    between atoms: _141  and  _142
REMARK   56  A    between atoms: _145  and  _147
REMARK   57  A    between atoms: _147  and  _148
REMARK   58  A    between atoms: _147  and  _150
REMARK   59  A    between atoms: _150  and  _151
REMARK   60  A    between atoms: _154  and  _156
REMARK   61  A    between atoms: _156  and  _157
REMARK   62  A    between atoms: _156  and  _159
REMARK   63  A    between atoms: _159  and  _160
REMARK   64  A    between atoms: _163  and  _165
REMARK   65  A    between atoms: _165  and  _166
REMARK   66  A    between atoms: _165  and  _168
REMARK   67  A    between atoms: _168  and  _169
REMARK   68  A    between atoms: _169  and  _170
REMARK   69  A    between atoms: _175  and  _177
REMARK   70  A    between atoms: _177  and  _178
REMARK   71  A    between atoms: _177  and  _180
REMARK   72  A    between atoms: _180  and  _181
REMARK   73  A    between atoms: _181  and  _182
REMARK   74  A    between atoms: _182  and  _183
REMARK   75  A    between atoms: _192  and  _194
REMARK   76  A    between atoms: _194  and  _195
REMARK   77  A    between atoms: _198  and  _200
REMARK   78  A    between atoms: _200  and  _201
REMARK   79  A    between atoms: _200  and  _203
REMARK   80  A    between atoms: _203  and  _204
REMARK   81  A    between atoms: _207  and  _209
REMARK   82  A    between atoms: _209  and  _210
REMARK   83  A    between atoms: _209  and  _212
REMARK   84  A    between atoms: _212  and  _213
REMARK   85  A    between atoms: _216  and  _218
REMARK   86  A    between atoms: _218  and  _219
REMARK   87  A    between atoms: _218  and  _221
REMARK   88  A    between atoms: _221  and  _222
REMARK   89  A    between atoms: _222  and  _223
REMARK   90  A    between atoms: _223  and  _224
REMARK   91  A    between atoms: _233  and  _235
REMARK   92  A    between atoms: _235  and  _236
REMARK   93  A    between atoms: _235  and  _238
REMARK   94  A    between atoms: _241  and  _243
REMARK   95  A    between atoms: _243  and  _244
REMARK   96  A    between atoms: _243  and  _246
REMARK   97  A    between atoms: _246  and  _247
REMARK   98  A    between atoms: _252  and  _253
REMARK   99  A    between atoms: _255  and  _257
REMARK  100  A    between atoms: _257  and  _258
REMARK  101  A    between atoms: _257  and  _260
REMARK  102  A    between atoms: _260  and  _261
REMARK  103  A    between atoms: _263  and  _265
REMARK  104  A    between atoms: _265  and  _266
REMARK  105  A    between atoms: _265  and  _268
REMARK  106  A    between atoms: _268  and  _269
REMARK  107  A    between atoms: _274  and  _276
REMARK  108  A    between atoms: _276  and  _277
REMARK  109  A    between atoms: _276  and  _279
REMARK  110  A    between atoms: _279  and  _280
REMARK  111  A    between atoms: _280  and  _281
REMARK  112  A    between atoms: _284  and  _286
REMARK  113  A    between atoms: _286  and  _287
REMARK  114  A    between atoms: _286  and  _289
REMARK  115  A    between atoms: _289  and  _290
REMARK  116  A    between atoms: _295  and  _296
REMARK  117  A    between atoms: _298  and  _300
REMARK  118  A    between atoms: _300  and  _301
REMARK  119  A    between atoms: _304  and  _306
REMARK  120  A    between atoms: _306  and  _307
REMARK  121  A    between atoms: _306  and  _309
REMARK  122  A    between atoms: _309  and  _310
REMARK  123  A    between atoms: _314  and  _315
REMARK  124  A    between atoms: _320  and  _322
REMARK  125  A    between atoms: _322  and  _323
REMARK  126  A    between atoms: _322  and  _325
REMARK  127  A    between atoms: _325  and  _326
REMARK  128  A    between atoms: _329  and  _331
REMARK  129  A    between atoms: _331  and  _332
REMARK  130  A    between atoms: _331  and  _334
REMARK  131  A    between atoms: _334  and  _335
REMARK  132  A    between atoms: _335  and  _336
REMARK  133  A    between atoms: _341  and  _343
REMARK  134  A    between atoms: _343  and  _344
REMARK  135  A    between atoms: _343  and  _346
REMARK  136  A    between atoms: _346  and  _347
REMARK  137  A    between atoms: _350  and  _352
REMARK  138  A    between atoms: _352  and  _353
REMARK  139  A    between atoms: _352  and  _355
REMARK  140  A    between atoms: _355  and  _356
REMARK  141  A    between atoms: _362  and  _364
REMARK  142  A    between atoms: _364  and  _365
REMARK  143  A    between atoms: _364  and  _367
REMARK  144  A    between atoms: _367  and  _368
REMARK  145  A    between atoms: _371  and  _373
REMARK  146  A    between atoms: _373  and  _374
REMARK  147  A    between atoms: _377  and  _379
REMARK  148  A    between atoms: _379  and  _380
REMARK  149  A    between atoms: _379  and  _382
REMARK  150  A    between atoms: _382  and  _383
REMARK  151  A    between atoms: _393  and  _395
REMARK  152  A    between atoms: _395  and  _396
REMARK  153  A    between atoms: _395  and  _398
REMARK  154  A    between atoms: _398  and  _399
REMARK  155  A    between atoms: _401  and  _403
REMARK  156  A    between atoms: _403  and  _404
REMARK  157  A    between atoms: _403  and  _406
REMARK  158  A    between atoms: _406  and  _407
REMARK  159  A    between atoms: _412  and  _413
REMARK  160  A    between atoms: _415  and  _417
REMARK  161  A    between atoms: _417  and  _418
REMARK  162  A    between atoms: _417  and  _420
REMARK  163  A    between atoms: _420  and  _421
REMARK  164  A    between atoms: _426  and  _427
REMARK  165  A    between atoms: _429  and  _431
REMARK  166  A    between atoms: _431  and  _432
REMARK  167  A    between atoms: _431  and  _434
REMARK  168  A    between atoms: _434  and  _435
REMARK  169  A    between atoms: _438  and  _440
REMARK  170  A    between atoms: _440  and  _441
REMARK  171  A    between atoms: _443  and  _445
REMARK  172  A    between atoms: _445  and  _446
REMARK  173  A    between atoms: _445  and  _448
REMARK  174  A    between atoms: _448  and  _449
REMARK  175  A    between atoms: _454  and  _455
REMARK  176  A    between atoms: _457  and  _459
REMARK  177  A    between atoms: _459  and  _460
REMARK  178  A    between atoms: _459  and  _462
REMARK  179  A    between atoms: _462  and  _463
REMARK  180  A    between atoms: _466  and  _468
REMARK  181  A    between atoms: _468  and  _469
REMARK  182  A    between atoms: _468  and  _471
REMARK  183  A    between atoms: _471  and  _472
REMARK  184  A    between atoms: _472  and  _473
REMARK  185  A    between atoms: _473  and  _474
REMARK  186  A    between atoms: _483  and  _485
REMARK  187  A    between atoms: _485  and  _486
REMARK  188  A    between atoms: _485  and  _488
REMARK  189  A    between atoms: _488  and  _489
REMARK  190  A    between atoms: _492  and  _494
REMARK  191  A    between atoms: _494  and  _495
REMARK  192  A    between atoms: _494  and  _497
REMARK  193  A    between atoms: _497  and  _498
REMARK  194  A    between atoms: _501  and  _503
REMARK  195  A    between atoms: _503  and  _504
REMARK  196  A    between atoms: _503  and  _506
REMARK  197  A    between atoms: _506  and  _507
REMARK  198  A    between atoms: _507  and  _508
REMARK  199  A    between atoms: _508  and  _509
REMARK  200  A    between atoms: _518  and  _520
REMARK  201  A    between atoms: _520  and  _521
REMARK  202  A    between atoms: _520  and  _523
REMARK  203  A    between atoms: _523  and  _524
REMARK  204  A    between atoms: _524  and  _525
REMARK  205  A    between atoms: _530  and  _532
REMARK  206  A    between atoms: _532  and  _533
REMARK  207  A    between atoms: _532  and  _535
REMARK  208  A    between atoms: _535  and  _536
REMARK  209  A    between atoms: _536  and  _537
REMARK  210  A    between atoms: _537  and  _538
REMARK  211  A    between atoms: _547  and  _549
REMARK  212  A    between atoms: _549  and  _550
REMARK  213  A    between atoms: _553  and  _555
REMARK  214  A    between atoms: _555  and  _556
REMARK  215  A    between atoms: _558  and  _560
REMARK  216  A    between atoms: _560  and  _561
REMARK  217  A    between atoms: _560  and  _563
REMARK  218  A    between atoms: _563  and  _564
REMARK  219  A    between atoms: _567  and  _569
REMARK  220  A    between atoms: _569  and  _570
REMARK  221  A    between atoms: _569  and  _572
REMARK  222  A    between atoms: _572  and  _573
REMARK  223  A    between atoms: _573  and  _574
REMARK  224  A    between atoms: _574  and  _575
REMARK  225  A    between atoms: _584  and  _586
REMARK  226  A    between atoms: _586  and  _587
REMARK  227  A    between atoms: _586  and  _589
REMARK  228  A    between atoms: _592  and  _594
REMARK  229  A    between atoms: _594  and  _595
REMARK  230  A    between atoms: _594  and  _597
REMARK  231  A    between atoms: _597  and  _598
REMARK  232  A    between atoms: _603  and  _604
REMARK  233  A    between atoms: _606  and  _608
REMARK  234  A    between atoms: _608  and  _609
REMARK  235  A    between atoms: _608  and  _611
REMARK  236  A    between atoms: _611  and  _612
REMARK  237  A    between atoms: _614  and  _616
REMARK  238  A    between atoms: _616  and  _617
REMARK  239  A    between atoms: _616  and  _619
REMARK  240  A    between atoms: _619  and  _620
REMARK  241  A    between atoms: _625  and  _627
REMARK  242  A    between atoms: _627  and  _628
REMARK  243  A    between atoms: _627  and  _630
REMARK  244  A    between atoms: _630  and  _631
REMARK  245  A    between atoms: _631  and  _632
REMARK  246  A    between atoms: _635  and  _637
REMARK  247  A    between atoms: _637  and  _638
REMARK  248  A    between atoms: _637  and  _640
REMARK  249  A    between atoms: _640  and  _641
REMARK  250  A    between atoms: _646  and  _647
REMARK  251  A    between atoms: _649  and  _651
REMARK  252  A    between atoms: _651  and  _652
REMARK  253  A    between atoms: _655  and  _657
REMARK  254  A    between atoms: _657  and  _658
REMARK  255  A    between atoms: _657  and  _660
REMARK  256  A    between atoms: _660  and  _661
REMARK  257  A    between atoms: _665  and  _666
REMARK  258  A    between atoms: _671  and  _673
REMARK  259  A    between atoms: _673  and  _674
REMARK  260  A    between atoms: _673  and  _676
REMARK  261  A    between atoms: _676  and  _677
REMARK  262  A    between atoms: _680  and  _682
REMARK  263  A    between atoms: _682  and  _683
REMARK  264  A    between atoms: _682  and  _685
REMARK  265  A    between atoms: _685  and  _686
REMARK  266  A    between atoms: _686  and  _687
REMARK  267  A    between atoms: _692  and  _694
REMARK  268  A    between atoms: _694  and  _695
REMARK  269  A    between atoms: _694  and  _697
REMARK  270  A    between atoms: _697  and  _698
REMARK  271  A    between atoms: _701  and  _703
REMARK  272  A    between atoms: _703  and  _704
REMARK  273  A    between atoms: _703  and  _706
REMARK  274  A    between atoms: _706  and  _707
REMARK  275  A    between atoms: _710  and  _712
REMARK  276  A    between atoms: _712  and  _713
REMARK  277  A    between atoms: _712  and  _715
REMARK  278  A    between atoms: _715  and  _716
REMARK                            x       y       z     vdW  Elec       q    Type
REMARK                         _______ _______ _______ _____ _____    ______ ____
ROOT
ATOM      1  O   HOH     1      51.362  12.370 -17.515  0.00  0.00    +0.000 OA
ENDROOT
TORSDOF 0
REMARK  Name = ../refined-set-2016/4ksy/4ksy_pocket.pdb
REMARK  278 active torsions:
REMARK  status: ('A' for Active; 'I' for Inactive)
REMARK    1  A    between atoms: _1  and  _3
REMARK    2  A    between atoms: _3  and  _4
REMARK    3  A    between atoms: _6  and  _8
REMARK    4  A    between atoms: _8  and  _9
REMARK    5  A    between atoms: _8  and  _11
REMARK    6  A    between atoms: _11  and  _12
REMARK    7  A    between atoms: _15  and  _17
REMARK    8  A    between atoms: _17  and  _18
REMARK    9  A    between atoms: _21  and  _23
REMARK   10  A    between atoms: _23  and  _24
REMARK   11  A    between atoms: _23  and  _26
REMARK   12  A    between atoms: _26  and  _27
REMARK   13  A    between atoms: _37  and  _39
REMARK   14  A    between atoms: _39  and  _40
REMARK   15  A    between atoms: _39  and  _42
REMARK   16  A    between atoms: _42  and  _43
REMARK   17  A    between atoms: _45  and  _47
REMARK   18  A    between atoms: _47  and  _48
REMARK   19  A    between atoms: _47  and  _50
REMARK   20  A    between atoms: _50  and  _51
REMARK   21  A    between atoms: _56  and  _57
REMARK   22  A    between atoms: _59  and  _61
REMARK   23  A    between atoms: _61  and  _62
REMARK   24  A    between atoms: _61  and  _64
REMARK   25  A    between atoms: _64  and  _65
REMARK   26  A    between atoms: _70  and  _71
REMARK   27  A    between atoms: _73  and  _75
REMARK   28  A    between atoms: _75  and  _76
REMARK   29  A    between atoms: _75  and  _78
REMARK   30  A    between atoms: _78  and  _79
REMARK   31  A    between atoms: _82  and  _84
REMARK   32  A    between atoms: _84  and  _85
REMARK   33  A    between atoms: _87  and  _89
REMARK   34  A    between atoms: _89  and  _90
REMARK   35  A    between atoms: _89  and  _92
REMARK   36  A    between atoms: _92  and  _93
REMARK   37  A    between atoms: _98  and  _99
REMARK   38  A    between atoms: _101  and  _103
REMARK   39  A    between atoms: _103  and  _104
REMARK   40  A    between atoms: _103  and  _106
REMARK   41  A    between atoms: _106  and  _107
REMARK   42  A    between atoms: _110  and  _112
REMARK   43  A    between atoms: _112  and  _113
REMARK   44  A    between atoms: _112  and  _115
REMARK   45  A    between atoms: _115  and  _116
REMARK   46  A    between atoms: _116  and  _117
REMARK   47  A    between atoms: _117  and  _118
REMARK   48  A    between atoms: _127  and  _129
REMARK   49  A    between atoms: _129  and  _130
REMARK   50  A    between atoms: _129  and  _132
REMARK   51  A    between atoms: _132  and  _133
REMARK   52  A    between atoms: _136  and  _138
REMARK   53  A    between atoms: _138  and  _139
REMARK   54  A    between atoms: _138  and  _141
REMARK   55  A    between atoms: _141  and  _142
REMARK   56  A    between atoms: _145  and  _147
REMARK   57  A    between atoms: _147  and  _148
REMARK   58  A    between atoms: _147  and  _150
REMARK   59  A    between atoms: _150  and  _151
REMARK   60  A    between atoms: _154  and  _156
REMARK   61  A    between atoms: _156  and  _157
REMARK   62  A    between atoms: _156  and  _159
REMARK   63  A    between atoms: _159  and  _160
REMARK   64  A    between atoms: _163  and  _165
REMARK   65  A    between atoms: _165  and  _166
REMARK   66  A    between atoms: _165  and  _168
REMARK   67  A    between atoms: _168  and  _169
REMARK   68  A    between atoms: _169  and  _170
REMARK   69  A    between atoms: _175  and  _177
REMARK   70  A    between atoms: _177  and  _178
REMARK   71  A    between atoms: _177  and  _180
REMARK   72  A    between atoms: _180  and  _181
REMARK   73  A    between atoms: _181  and  _182
REMARK   74  A    between atoms: _182  and  _183
REMARK   75  A    between atoms: _192  and  _194
REMARK   76  A    between atoms: _194  and  _195
REMARK   77  A    between atoms: _198  and  _200
REMARK   78  A    between atoms: _200  and  _201
REMARK   79  A    between atoms: _200  and  _203
REMARK   80  A    between atoms: _203  and  _204
REMARK   81  A    between atoms: _207  and  _209
REMARK   82  A    between atoms: _209  and  _210
REMARK   83  A    between atoms: _209  and  _212
REMARK   84  A    between atoms: _212  and  _213
REMARK   85  A    between atoms: _216  and  _218
REMARK   86  A    between atoms: _218  and  _219
REMARK   87  A    between atoms: _218  and  _221
REMARK   88  A    between atoms: _221  and  _222
REMARK   89  A    between atoms: _222  and  _223
REMARK   90  A    between atoms: _223  and  _224
REMARK   91  A    between atoms: _233  and  _235
REMARK   92  A    between atoms: _235  and  _236
REMARK   93  A    between atoms: _235  and  _238
REMARK   94  A    between atoms: _241  and  _243
REMARK   95  A    between atoms: _243  and  _244
REMARK   96  A    between atoms: _243  and  _246
REMARK   97  A    between atoms: _246  and  _247
REMARK   98  A    between atoms: _252  and  _253
REMARK   99  A    between atoms: _255  and  _257
REMARK  100  A    between atoms: _257  and  _258
REMARK  101  A    between atoms: _257  and  _260
REMARK  102  A    between atoms: _260  and  _261
REMARK  103  A    between atoms: _263  and  _265
REMARK  104  A    between atoms: _265  and  _266
REMARK  105  A    between atoms: _265  and  _268
REMARK  106  A    between atoms: _268  and  _269
REMARK  107  A    between atoms: _274  and  _276
REMARK  108  A    between atoms: _276  and  _277
REMARK  109  A    between atoms: _276  and  _279
REMARK  110  A    between atoms: _279  and  _280
REMARK  111  A    between atoms: _280  and  _281
REMARK  112  A    between atoms: _284  and  _286
REMARK  113  A    between atoms: _286  and  _287
REMARK  114  A    between atoms: _286  and  _289
REMARK  115  A    between atoms: _289  and  _290
REMARK  116  A    between atoms: _295  and  _296
REMARK  117  A    between atoms: _298  and  _300
REMARK  118  A    between atoms: _300  and  _301
REMARK  119  A    between atoms: _304  and  _306
REMARK  120  A    between atoms: _306  and  _307
REMARK  121  A    between atoms: _306  and  _309
REMARK  122  A    between atoms: _309  and  _310
REMARK  123  A    between atoms: _314  and  _315
REMARK  124  A    between atoms: _320  and  _322
REMARK  125  A    between atoms: _322  and  _323
REMARK  126  A    between atoms: _322  and  _325
REMARK  127  A    between atoms: _325  and  _326
REMARK  128  A    between atoms: _329  and  _331
REMARK  129  A    between atoms: _331  and  _332
REMARK  130  A    between atoms: _331  and  _334
REMARK  131  A    between atoms: _334  and  _335
REMARK  132  A    between atoms: _335  and  _336
REMARK  133  A    between atoms: _341  and  _343
REMARK  134  A    between atoms: _343  and  _344
REMARK  135  A    between atoms: _343  and  _346
REMARK  136  A    between atoms: _346  and  _347
REMARK  137  A    between atoms: _350  and  _352
REMARK  138  A    between atoms: _352  and  _353
REMARK  139  A    between atoms: _352  and  _355
REMARK  140  A    between atoms: _355  and  _356
REMARK  141  A    between atoms: _362  and  _364
REMARK  142  A    between atoms: _364  and  _365
REMARK  143  A    between atoms: _364  and  _367
REMARK  144  A    between atoms: _367  and  _368
REMARK  145  A    between atoms: _371  and  _373
REMARK  146  A    between atoms: _373  and  _374
REMARK  147  A    between atoms: _377  and  _379
REMARK  148  A    between atoms: _379  and  _380
REMARK  149  A    between atoms: _379  and  _382
REMARK  150  A    between atoms: _382  and  _383
REMARK  151  A    between atoms: _393  and  _395
REMARK  152  A    between atoms: _395  and  _396
REMARK  153  A    between atoms: _395  and  _398
REMARK  154  A    between atoms: _398  and  _399
REMARK  155  A    between atoms: _401  and  _403
REMARK  156  A    between atoms: _403  and  _404
REMARK  157  A    between atoms: _403  and  _406
REMARK  158  A    between atoms: _406  and  _407
REMARK  159  A    between atoms: _412  and  _413
REMARK  160  A    between atoms: _415  and  _417
REMARK  161  A    between atoms: _417  and  _418
REMARK  162  A    between atoms: _417  and  _420
REMARK  163  A    between atoms: _420  and  _421
REMARK  164  A    between atoms: _426  and  _427
REMARK  165  A    between atoms: _429  and  _431
REMARK  166  A    between atoms: _431  and  _432
REMARK  167  A    between atoms: _431  and  _434
REMARK  168  A    between atoms: _434  and  _435
REMARK  169  A    between atoms: _438  and  _440
REMARK  170  A    between atoms: _440  and  _441
REMARK  171  A    between atoms: _443  and  _445
REMARK  172  A    between atoms: _445  and  _446
REMARK  173  A    between atoms: _445  and  _448
REMARK  174  A    between atoms: _448  and  _449
REMARK  175  A    between atoms: _454  and  _455
REMARK  176  A    between atoms: _457  and  _459
REMARK  177  A    between atoms: _459  and  _460
REMARK  178  A    between atoms: _459  and  _462
REMARK  179  A    between atoms: _462  and  _463
REMARK  180  A    between atoms: _466  and  _468
REMARK  181  A    between atoms: _468  and  _469
REMARK  182  A    between atoms: _468  and  _471
REMARK  183  A    between atoms: _471  and  _472
REMARK  184  A    between atoms: _472  and  _473
REMARK  185  A    between atoms: _473  and  _474
REMARK  186  A    between atoms: _483  and  _485
REMARK  187  A    between atoms: _485  and  _486
REMARK  188  A    between atoms: _485  and  _488
REMARK  189  A    between atoms: _488  and  _489
REMARK  190  A    between atoms: _492  and  _494
REMARK  191  A    between atoms: _494  and  _495
REMARK  192  A    between atoms: _494  and  _497
REMARK  193  A    between atoms: _497  and  _498
REMARK  194  A    between atoms: _501  and  _503
REMARK  195  A    between atoms: _503  and  _504
REMARK  196  A    between atoms: _503  and  _506
REMARK  197  A    between atoms: _506  and  _507
REMARK  198  A    between atoms: _507  and  _508
REMARK  199  A    between atoms: _508  and  _509
REMARK  200  A    between atoms: _518  and  _520
REMARK  201  A    between atoms: _520  and  _521
REMARK  202  A    between atoms: _520  and  _523
REMARK  203  A    between atoms: _523  and  _524
REMARK  204  A    between atoms: _524  and  _525
REMARK  205  A    between atoms: _530  and  _532
REMARK  206  A    between atoms: _532  and  _533
REMARK  207  A    between atoms: _532  and  _535
REMARK  208  A    between atoms: _535  and  _536
REMARK  209  A    between atoms: _536  and  _537
REMARK  210  A    between atoms: _537  and  _538
REMARK  211  A    between atoms: _547  and  _549
REMARK  212  A    between atoms: _549  and  _550
REMARK  213  A    between atoms: _553  and  _555
REMARK  214  A    between atoms: _555  and  _556
REMARK  215  A    between atoms: _558  and  _560
REMARK  216  A    between atoms: _560  and  _561
REMARK  217  A    between atoms: _560  and  _563
REMARK  218  A    between atoms: _563  and  _564
REMARK  219  A    between atoms: _567  and  _569
REMARK  220  A    between atoms: _569  and  _570
REMARK  221  A    between atoms: _569  and  _572
REMARK  222  A    between atoms: _572  and  _573
REMARK  223  A    between atoms: _573  and  _574
REMARK  224  A    between atoms: _574  and  _575
REMARK  225  A    between atoms: _584  and  _586
REMARK  226  A    between atoms: _586  and  _587
REMARK  227  A    between atoms: _586  and  _589
REMARK  228  A    between atoms: _592  and  _594
REMARK  229  A    between atoms: _594  and  _595
REMARK  230  A    between atoms: _594  and  _597
REMARK  231  A    between atoms: _597  and  _598
REMARK  232  A    between atoms: _603  and  _604
REMARK  233  A    between atoms: _606  and  _608
REMARK  234  A    between atoms: _608  and  _609
REMARK  235  A    between atoms: _608  and  _611
REMARK  236  A    between atoms: _611  and  _612
REMARK  237  A    between atoms: _614  and  _616
REMARK  238  A    between atoms: _616  and  _617
REMARK  239  A    between atoms: _616  and  _619
REMARK  240  A    between atoms: _619  and  _620
REMARK  241  A    between atoms: _625  and  _627
REMARK  242  A    between atoms: _627  and  _628
REMARK  243  A    between atoms: _627  and  _630
REMARK  244  A    between atoms: _630  and  _631
REMARK  245  A    between atoms: _631  and  _632
REMARK  246  A    between atoms: _635  and  _637
REMARK  247  A    between atoms: _637  and  _638
REMARK  248  A    between atoms: _637  and  _640
REMARK  249  A    between atoms: _640  and  _641
REMARK  250  A    between atoms: _646  and  _647
REMARK  251  A    between atoms: _649  and  _651
REMARK  252  A    between atoms: _651  and  _652
REMARK  253  A    between atoms: _655  and  _657
REMARK  254  A    between atoms: _657  and  _658
REMARK  255  A    between atoms: _657  and  _660
REMARK  256  A    between atoms: _660  and  _661
REMARK  257  A    between atoms: _665  and  _666
REMARK  258  A    between atoms: _671  and  _673
REMARK  259  A    between atoms: _673  and  _674
REMARK  260  A    between atoms: _673  and  _676
REMARK  261  A    between atoms: _676  and  _677
REMARK  262  A    between atoms: _680  and  _682
REMARK  263  A    between atoms: _682  and  _683
REMARK  264  A    between atoms: _682  and  _685
REMARK  265  A    between atoms: _685  and  _686
REMARK  266  A    between atoms: _686  and  _687
REMARK  267  A    between atoms: _692  and  _694
REMARK  268  A    between atoms: _694  and  _695
REMARK  269  A    between atoms: _694  and  _697
REMARK  270  A    between atoms: _697  and  _698
REMARK  271  A    between atoms: _701  and  _703
REMARK  272  A    between atoms: _703  and  _704
REMARK  273  A    between atoms: _703  and  _706
REMARK  274  A    between atoms: _706  and  _707
REMARK  275  A    between atoms: _710  and  _712
REMARK  276  A    between atoms: _712  and  _713
REMARK  277  A    between atoms: _712  and  _715
REMARK  278  A    between atoms: _715  and  _716
REMARK                            x       y       z     vdW  Elec       q    Type
REMARK                         _______ _______ _______ _____ _____    ______ ____
ROOT
ATOM      1  O   HOH     1      34.922  12.118 -18.852  0.00  0.00    +0.000 OA
ENDROOT
TORSDOF 0
REMARK  Name = ../refined-set-2016/4ksy/4ksy_pocket.pdb
REMARK  278 active torsions:
REMARK  status: ('A' for Active; 'I' for Inactive)
REMARK    1  A    between atoms: _1  and  _3
REMARK    2  A    between atoms: _3  and  _4
REMARK    3  A    between atoms: _6  and  _8
REMARK    4  A    between atoms: _8  and  _9
REMARK    5  A    between atoms: _8  and  _11
REMARK    6  A    between atoms: _11  and  _12
REMARK    7  A    between atoms: _15  and  _17
REMARK    8  A    between atoms: _17  and  _18
REMARK    9  A    between atoms: _21  and  _23
REMARK   10  A    between atoms: _23  and  _24
REMARK   11  A    between atoms: _23  and  _26
REMARK   12  A    between atoms: _26  and  _27
REMARK   13  A    between atoms: _37  and  _39
REMARK   14  A    between atoms: _39  and  _40
REMARK   15  A    between atoms: _39  and  _42
REMARK   16  A    between atoms: _42  and  _43
REMARK   17  A    between atoms: _45  and  _47
REMARK   18  A    between atoms: _47  and  _48
REMARK   19  A    between atoms: _47  and  _50
REMARK   20  A    between atoms: _50  and  _51
REMARK   21  A    between atoms: _56  and  _57
REMARK   22  A    between atoms: _59  and  _61
REMARK   23  A    between atoms: _61  and  _62
REMARK   24  A    between atoms: _61  and  _64
REMARK   25  A    between atoms: _64  and  _65
REMARK   26  A    between atoms: _70  and  _71
REMARK   27  A    between atoms: _73  and  _75
REMARK   28  A    between atoms: _75  and  _76
REMARK   29  A    between atoms: _75  and  _78
REMARK   30  A    between atoms: _78  and  _79
REMARK   31  A    between atoms: _82  and  _84
REMARK   32  A    between atoms: _84  and  _85
REMARK   33  A    between atoms: _87  and  _89
REMARK   34  A    between atoms: _89  and  _90
REMARK   35  A    between atoms: _89  and  _92
REMARK   36  A    between atoms: _92  and  _93
REMARK   37  A    between atoms: _98  and  _99
REMARK   38  A    between atoms: _101  and  _103
REMARK   39  A    between atoms: _103  and  _104
REMARK   40  A    between atoms: _103  and  _106
REMARK   41  A    between atoms: _106  and  _107
REMARK   42  A    between atoms: _110  and  _112
REMARK   43  A    between atoms: _112  and  _113
REMARK   44  A    between atoms: _112  and  _115
REMARK   45  A    between atoms: _115  and  _116
REMARK   46  A    between atoms: _116  and  _117
REMARK   47  A    between atoms: _117  and  _118
REMARK   48  A    between atoms: _127  and  _129
REMARK   49  A    between atoms: _129  and  _130
REMARK   50  A    between atoms: _129  and  _132
REMARK   51  A    between atoms: _132  and  _133
REMARK   52  A    between atoms: _136  and  _138
REMARK   53  A    between atoms: _138  and  _139
REMARK   54  A    between atoms: _138  and  _141
REMARK   55  A    between atoms: _141  and  _142
REMARK   56  A    between atoms: _145  and  _147
REMARK   57  A    between atoms: _147  and  _148
REMARK   58  A    between atoms: _147  and  _150
REMARK   59  A    between atoms: _150  and  _151
REMARK   60  A    between atoms: _154  and  _156
REMARK   61  A    between atoms: _156  and  _157
REMARK   62  A    between atoms: _156  and  _159
REMARK   63  A    between atoms: _159  and  _160
REMARK   64  A    between atoms: _163  and  _165
REMARK   65  A    between atoms: _165  and  _166
REMARK   66  A    between atoms: _165  and  _168
REMARK   67  A    between atoms: _168  and  _169
REMARK   68  A    between atoms: _169  and  _170
REMARK   69  A    between atoms: _175  and  _177
REMARK   70  A    between atoms: _177  and  _178
REMARK   71  A    between atoms: _177  and  _180
REMARK   72  A    between atoms: _180  and  _181
REMARK   73  A    between atoms: _181  and  _182
REMARK   74  A    between atoms: _182  and  _183
REMARK   75  A    between atoms: _192  and  _194
REMARK   76  A    between atoms: _194  and  _195
REMARK   77  A    between atoms: _198  and  _200
REMARK   78  A    between atoms: _200  and  _201
REMARK   79  A    between atoms: _200  and  _203
REMARK   80  A    between atoms: _203  and  _204
REMARK   81  A    between atoms: _207  and  _209
REMARK   82  A    between atoms: _209  and  _210
REMARK   83  A    between atoms: _209  and  _212
REMARK   84  A    between atoms: _212  and  _213
REMARK   85  A    between atoms: _216  and  _218
REMARK   86  A    between atoms: _218  and  _219
REMARK   87  A    between atoms: _218  and  _221
REMARK   88  A    between atoms: _221  and  _222
REMARK   89  A    between atoms: _222  and  _223
REMARK   90  A    between atoms: _223  and  _224
REMARK   91  A    between atoms: _233  and  _235
REMARK   92  A    between atoms: _235  and  _236
REMARK   93  A    between atoms: _235  and  _238
REMARK   94  A    between atoms: _241  and  _243
REMARK   95  A    between atoms: _243  and  _244
REMARK   96  A    between atoms: _243  and  _246
REMARK   97  A    between atoms: _246  and  _247
REMARK   98  A    between atoms: _252  and  _253
REMARK   99  A    between atoms: _255  and  _257
REMARK  100  A    between atoms: _257  and  _258
REMARK  101  A    between atoms: _257  and  _260
REMARK  102  A    between atoms: _260  and  _261
REMARK  103  A    between atoms: _263  and  _265
REMARK  104  A    between atoms: _265  and  _266
REMARK  105  A    between atoms: _265  and  _268
REMARK  106  A    between atoms: _268  and  _269
REMARK  107  A    between atoms: _274  and  _276
REMARK  108  A    between atoms: _276  and  _277
REMARK  109  A    between atoms: _276  and  _279
REMARK  110  A    between atoms: _279  and  _280
REMARK  111  A    between atoms: _280  and  _281
REMARK  112  A    between atoms: _284  and  _286
REMARK  113  A    between atoms: _286  and  _287
REMARK  114  A    between atoms: _286  and  _289
REMARK  115  A    between atoms: _289  and  _290
REMARK  116  A    between atoms: _295  and  _296
REMARK  117  A    between atoms: _298  and  _300
REMARK  118  A    between atoms: _300  and  _301
REMARK  119  A    between atoms: _304  and  _306
REMARK  120  A    between atoms: _306  and  _307
REMARK  121  A    between atoms: _306  and  _309
REMARK  122  A    between atoms: _309  and  _310
REMARK  123  A    between atoms: _314  and  _315
REMARK  124  A    between atoms: _320  and  _322
REMARK  125  A    between atoms: _322  and  _323
REMARK  126  A    between atoms: _322  and  _325
REMARK  127  A    between atoms: _325  and  _326
REMARK  128  A    between atoms: _329  and  _331
REMARK  129  A    between atoms: _331  and  _332
REMARK  130  A    between atoms: _331  and  _334
REMARK  131  A    between atoms: _334  and  _335
REMARK  132  A    between atoms: _335  and  _336
REMARK  133  A    between atoms: _341  and  _343
REMARK  134  A    between atoms: _343  and  _344
REMARK  135  A    between atoms: _343  and  _346
REMARK  136  A    between atoms: _346  and  _347
REMARK  137  A    between atoms: _350  and  _352
REMARK  138  A    between atoms: _352  and  _353
REMARK  139  A    between atoms: _352  and  _355
REMARK  140  A    between atoms: _355  and  _356
REMARK  141  A    between atoms: _362  and  _364
REMARK  142  A    between atoms: _364  and  _365
REMARK  143  A    between atoms: _364  and  _367
REMARK  144  A    between atoms: _367  and  _368
REMARK  145  A    between atoms: _371  and  _373
REMARK  146  A    between atoms: _373  and  _374
REMARK  147  A    between atoms: _377  and  _379
REMARK  148  A    between atoms: _379  and  _380
REMARK  149  A    between atoms: _379  and  _382
REMARK  150  A    between atoms: _382  and  _383
REMARK  151  A    between atoms: _393  and  _395
REMARK  152  A    between atoms: _395  and  _396
REMARK  153  A    between atoms: _395  and  _398
REMARK  154  A    between atoms: _398  and  _399
REMARK  155  A    between atoms: _401  and  _403
REMARK  156  A    between atoms: _403  and  _404
REMARK  157  A    between atoms: _403  and  _406
REMARK  158  A    between atoms: _406  and  _407
REMARK  159  A    between atoms: _412  and  _413
REMARK  160  A    between atoms: _415  and  _417
REMARK  161  A    between atoms: _417  and  _418
REMARK  162  A    between atoms: _417  and  _420
REMARK  163  A    between atoms: _420  and  _421
REMARK  164  A    between atoms: _426  and  _427
REMARK  165  A    between atoms: _429  and  _431
REMARK  166  A    between atoms: _431  and  _432
REMARK  167  A    between atoms: _431  and  _434
REMARK  168  A    between atoms: _434  and  _435
REMARK  169  A    between atoms: _438  and  _440
REMARK  170  A    between atoms: _440  and  _441
REMARK  171  A    between atoms: _443  and  _445
REMARK  172  A    between atoms: _445  and  _446
REMARK  173  A    between atoms: _445  and  _448
REMARK  174  A    between atoms: _448  and  _449
REMARK  175  A    between atoms: _454  and  _455
REMARK  176  A    between atoms: _457  and  _459
REMARK  177  A    between atoms: _459  and  _460
REMARK  178  A    between atoms: _459  and  _462
REMARK  179  A    between atoms: _462  and  _463
REMARK  180  A    between atoms: _466  and  _468
REMARK  181  A    between atoms: _468  and  _469
REMARK  182  A    between atoms: _468  and  _471
REMARK  183  A    between atoms: _471  and  _472
REMARK  184  A    between atoms: _472  and  _473
REMARK  185  A    between atoms: _473  and  _474
REMARK  186  A    between atoms: _483  and  _485
REMARK  187  A    between atoms: _485  and  _486
REMARK  188  A    between atoms: _485  and  _488
REMARK  189  A    between atoms: _488  and  _489
REMARK  190  A    between atoms: _492  and  _494
REMARK  191  A    between atoms: _494  and  _495
REMARK  192  A    between atoms: _494  and  _497
REMARK  193  A    between atoms: _497  and  _498
REMARK  194  A    between atoms: _501  and  _503
REMARK  195  A    between atoms: _503  and  _504
REMARK  196  A    between atoms: _503  and  _506
REMARK  197  A    between atoms: _506  and  _507
REMARK  198  A    between atoms: _507  and  _508
REMARK  199  A    between atoms: _508  and  _509
REMARK  200  A    between atoms: _518  and  _520
REMARK  201  A    between atoms: _520  and  _521
REMARK  202  A    between atoms: _520  and  _523
REMARK  203  A    between atoms: _523  and  _524
REMARK  204  A    between atoms: _524  and  _525
REMARK  205  A    between atoms: _530  and  _532
REMARK  206  A    between atoms: _532  and  _533
REMARK  207  A    between atoms: _532  and  _535
REMARK  208  A    between atoms: _535  and  _536
REMARK  209  A    between atoms: _536  and  _537
REMARK  210  A    between atoms: _537  and  _538
REMARK  211  A    between atoms: _547  and  _549
REMARK  212  A    between atoms: _549  and  _550
REMARK  213  A    between atoms: _553  and  _555
REMARK  214  A    between atoms: _555  and  _556
REMARK  215  A    between atoms: _558  and  _560
REMARK  216  A    between atoms: _560  and  _561
REMARK  217  A    between atoms: _560  and  _563
REMARK  218  A    between atoms: _563  and  _564
REMARK  219  A    between atoms: _567  and  _569
REMARK  220  A    between atoms: _569  and  _570
REMARK  221  A    between atoms: _569  and  _572
REMARK  222  A    between atoms: _572  and  _573
REMARK  223  A    between atoms: _573  and  _574
REMARK  224  A    between atoms: _574  and  _575
REMARK  225  A    between atoms: _584  and  _586
REMARK  226  A    between atoms: _586  and  _587
REMARK  227  A    between atoms: _586  and  _589
REMARK  228  A    between atoms: _592  and  _594
REMARK  229  A    between atoms: _594  and  _595
REMARK  230  A    between atoms: _594  and  _597
REMARK  231  A    between atoms: _597  and  _598
REMARK  232  A    between atoms: _603  and  _604
REMARK  233  A    between atoms: _606  and  _608
REMARK  234  A    between atoms: _608  and  _609
REMARK  235  A    between atoms: _608  and  _611
REMARK  236  A    between atoms: _611  and  _612
REMARK  237  A    between atoms: _614  and  _616
REMARK  238  A    between atoms: _616  and  _617
REMARK  239  A    between atoms: _616  and  _619
REMARK  240  A    between atoms: _619  and  _620
REMARK  241  A    between atoms: _625  and  _627
REMARK  242  A    between atoms: _627  and  _628
REMARK  243  A    between atoms: _627  and  _630
REMARK  244  A    between atoms: _630  and  _631
REMARK  245  A    between atoms: _631  and  _632
REMARK  246  A    between atoms: _635  and  _637
REMARK  247  A    between atoms: _637  and  _638
REMARK  248  A    between atoms: _637  and  _640
REMARK  249  A    between atoms: _640  and  _641
REMARK  250  A    between atoms: _646  and  _647
REMARK  251  A    between atoms: _649  and  _651
REMARK  252  A    between atoms: _651  and  _652
REMARK  253  A    between atoms: _655  and  _657
REMARK  254  A    between atoms: _657  and  _658
REMARK  255  A    between atoms: _657  and  _660
REMARK  256  A    between atoms: _660  and  _661
REMARK  257  A    between atoms: _665  and  _666
REMARK  258  A    between atoms: _671  and  _673
REMARK  259  A    between atoms: _673  and  _674
REMARK  260  A    between atoms: _673  and  _676
REMARK  261  A    between atoms: _676  and  _677
REMARK  262  A    between atoms: _680  and  _682
REMARK  263  A    between atoms: _682  and  _683
REMARK  264  A    between atoms: _682  and  _685
REMARK  265  A    between atoms: _685  and  _686
REMARK  266  A    between atoms: _686  and  _687
REMARK  267  A    between atoms: _692  and  _694
REMARK  268  A    between atoms: _694  and  _695
REMARK  269  A    between atoms: _694  and  _697
REMARK  270  A    between atoms: _697  and  _698
REMARK  271  A    between atoms: _701  and  _703
REMARK  272  A    between atoms: _703  and  _704
REMARK  273  A    between atoms: _703  and  _706
REMARK  274  A    between atoms: _706  and  _707
REMARK  275  A    between atoms: _710  and  _712
REMARK  276  A    between atoms: _712  and  _713
REMARK  277  A    between atoms: _712  and  _715
REMARK  278  A    between atoms: _715  and  _716
REMARK                            x       y       z     vdW  Elec       q    Type
REMARK                         _______ _______ _______ _____ _____    ______ ____
ROOT
ATOM      1  O   HOH     1      49.385   1.327 -12.045  0.00  0.00    +0.000 OA
ENDROOT
TORSDOF 0
REMARK  Name = ../refined-set-2016/4ksy/4ksy_pocket.pdb
REMARK  278 active torsions:
REMARK  status: ('A' for Active; 'I' for Inactive)
REMARK    1  A    between atoms: _1  and  _3
REMARK    2  A    between atoms: _3  and  _4
REMARK    3  A    between atoms: _6  and  _8
REMARK    4  A    between atoms: _8  and  _9
REMARK    5  A    between atoms: _8  and  _11
REMARK    6  A    between atoms: _11  and  _12
REMARK    7  A    between atoms: _15  and  _17
REMARK    8  A    between atoms: _17  and  _18
REMARK    9  A    between atoms: _21  and  _23
REMARK   10  A    between atoms: _23  and  _24
REMARK   11  A    between atoms: _23  and  _26
REMARK   12  A    between atoms: _26  and  _27
REMARK   13  A    between atoms: _37  and  _39
REMARK   14  A    between atoms: _39  and  _40
REMARK   15  A    between atoms: _39  and  _42
REMARK   16  A    between atoms: _42  and  _43
REMARK   17  A    between atoms: _45  and  _47
REMARK   18  A    between atoms: _47  and  _48
REMARK   19  A    between atoms: _47  and  _50
REMARK   20  A    between atoms: _50  and  _51
REMARK   21  A    between atoms: _56  and  _57
REMARK   22  A    between atoms: _59  and  _61
REMARK   23  A    between atoms: _61  and  _62
REMARK   24  A    between atoms: _61  and  _64
REMARK   25  A    between atoms: _64  and  _65
REMARK   26  A    between atoms: _70  and  _71
REMARK   27  A    between atoms: _73  and  _75
REMARK   28  A    between atoms: _75  and  _76
REMARK   29  A    between atoms: _75  and  _78
REMARK   30  A    between atoms: _78  and  _79
REMARK   31  A    between atoms: _82  and  _84
REMARK   32  A    between atoms: _84  and  _85
REMARK   33  A    between atoms: _87  and  _89
REMARK   34  A    between atoms: _89  and  _90
REMARK   35  A    between atoms: _89  and  _92
REMARK   36  A    between atoms: _92  and  _93
REMARK   37  A    between atoms: _98  and  _99
REMARK   38  A    between atoms: _101  and  _103
REMARK   39  A    between atoms: _103  and  _104
REMARK   40  A    between atoms: _103  and  _106
REMARK   41  A    between atoms: _106  and  _107
REMARK   42  A    between atoms: _110  and  _112
REMARK   43  A    between atoms: _112  and  _113
REMARK   44  A    between atoms: _112  and  _115
REMARK   45  A    between atoms: _115  and  _116
REMARK   46  A    between atoms: _116  and  _117
REMARK   47  A    between atoms: _117  and  _118
REMARK   48  A    between atoms: _127  and  _129
REMARK   49  A    between atoms: _129  and  _130
REMARK   50  A    between atoms: _129  and  _132
REMARK   51  A    between atoms: _132  and  _133
REMARK   52  A    between atoms: _136  and  _138
REMARK   53  A    between atoms: _138  and  _139
REMARK   54  A    between atoms: _138  and  _141
REMARK   55  A    between atoms: _141  and  _142
REMARK   56  A    between atoms: _145  and  _147
REMARK   57  A    between atoms: _147  and  _148
REMARK   58  A    between atoms: _147  and  _150
REMARK   59  A    between atoms: _150  and  _151
REMARK   60  A    between atoms: _154  and  _156
REMARK   61  A    between atoms: _156  and  _157
REMARK   62  A    between atoms: _156  and  _159
REMARK   63  A    between atoms: _159  and  _160
REMARK   64  A    between atoms: _163  and  _165
REMARK   65  A    between atoms: _165  and  _166
REMARK   66  A    between atoms: _165  and  _168
REMARK   67  A    between atoms: _168  and  _169
REMARK   68  A    between atoms: _169  and  _170
REMARK   69  A    between atoms: _175  and  _177
REMARK   70  A    between atoms: _177  and  _178
REMARK   71  A    between atoms: _177  and  _180
REMARK   72  A    between atoms: _180  and  _181
REMARK   73  A    between atoms: _181  and  _182
REMARK   74  A    between atoms: _182  and  _183
REMARK   75  A    between atoms: _192  and  _194
REMARK   76  A    between atoms: _194  and  _195
REMARK   77  A    between atoms: _198  and  _200
REMARK   78  A    between atoms: _200  and  _201
REMARK   79  A    between atoms: _200  and  _203
REMARK   80  A    between atoms: _203  and  _204
REMARK   81  A    between atoms: _207  and  _209
REMARK   82  A    between atoms: _209  and  _210
REMARK   83  A    between atoms: _209  and  _212
REMARK   84  A    between atoms: _212  and  _213
REMARK   85  A    between atoms: _216  and  _218
REMARK   86  A    between atoms: _218  and  _219
REMARK   87  A    between atoms: _218  and  _221
REMARK   88  A    between atoms: _221  and  _222
REMARK   89  A    between atoms: _222  and  _223
REMARK   90  A    between atoms: _223  and  _224
REMARK   91  A    between atoms: _233  and  _235
REMARK   92  A    between atoms: _235  and  _236
REMARK   93  A    between atoms: _235  and  _238
REMARK   94  A    between atoms: _241  and  _243
REMARK   95  A    between atoms: _243  and  _244
REMARK   96  A    between atoms: _243  and  _246
REMARK   97  A    between atoms: _246  and  _247
REMARK   98  A    between atoms: _252  and  _253
REMARK   99  A    between atoms: _255  and  _257
REMARK  100  A    between atoms: _257  and  _258
REMARK  101  A    between atoms: _257  and  _260
REMARK  102  A    between atoms: _260  and  _261
REMARK  103  A    between atoms: _263  and  _265
REMARK  104  A    between atoms: _265  and  _266
REMARK  105  A    between atoms: _265  and  _268
REMARK  106  A    between atoms: _268  and  _269
REMARK  107  A    between atoms: _274  and  _276
REMARK  108  A    between atoms: _276  and  _277
REMARK  109  A    between atoms: _276  and  _279
REMARK  110  A    between atoms: _279  and  _280
REMARK  111  A    between atoms: _280  and  _281
REMARK  112  A    between atoms: _284  and  _286
REMARK  113  A    between atoms: _286  and  _287
REMARK  114  A    between atoms: _286  and  _289
REMARK  115  A    between atoms: _289  and  _290
REMARK  116  A    between atoms: _295  and  _296
REMARK  117  A    between atoms: _298  and  _300
REMARK  118  A    between atoms: _300  and  _301
REMARK  119  A    between atoms: _304  and  _306
REMARK  120  A    between atoms: _306  and  _307
REMARK  121  A    between atoms: _306  and  _309
REMARK  122  A    between atoms: _309  and  _310
REMARK  123  A    between atoms: _314  and  _315
REMARK  124  A    between atoms: _320  and  _322
REMARK  125  A    between atoms: _322  and  _323
REMARK  126  A    between atoms: _322  and  _325
REMARK  127  A    between atoms: _325  and  _326
REMARK  128  A    between atoms: _329  and  _331
REMARK  129  A    between atoms: _331  and  _332
REMARK  130  A    between atoms: _331  and  _334
REMARK  131  A    between atoms: _334  and  _335
REMARK  132  A    between atoms: _335  and  _336
REMARK  133  A    between atoms: _341  and  _343
REMARK  134  A    between atoms: _343  and  _344
REMARK  135  A    between atoms: _343  and  _346
REMARK  136  A    between atoms: _346  and  _347
REMARK  137  A    between atoms: _350  and  _352
REMARK  138  A    between atoms: _352  and  _353
REMARK  139  A    between atoms: _352  and  _355
REMARK  140  A    between atoms: _355  and  _356
REMARK  141  A    between atoms: _362  and  _364
REMARK  142  A    between atoms: _364  and  _365
REMARK  143  A    between atoms: _364  and  _367
REMARK  144  A    between atoms: _367  and  _368
REMARK  145  A    between atoms: _371  and  _373
REMARK  146  A    between atoms: _373  and  _374
REMARK  147  A    between atoms: _377  and  _379
REMARK  148  A    between atoms: _379  and  _380
REMARK  149  A    between atoms: _379  and  _382
REMARK  150  A    between atoms: _382  and  _383
REMARK  151  A    between atoms: _393  and  _395
REMARK  152  A    between atoms: _395  and  _396
REMARK  153  A    between atoms: _395  and  _398
REMARK  154  A    between atoms: _398  and  _399
REMARK  155  A    between atoms: _401  and  _403
REMARK  156  A    between atoms: _403  and  _404
REMARK  157  A    between atoms: _403  and  _406
REMARK  158  A    between atoms: _406  and  _407
REMARK  159  A    between atoms: _412  and  _413
REMARK  160  A    between atoms: _415  and  _417
REMARK  161  A    between atoms: _417  and  _418
REMARK  162  A    between atoms: _417  and  _420
REMARK  163  A    between atoms: _420  and  _421
REMARK  164  A    between atoms: _426  and  _427
REMARK  165  A    between atoms: _429  and  _431
REMARK  166  A    between atoms: _431  and  _432
REMARK  167  A    between atoms: _431  and  _434
REMARK  168  A    between atoms: _434  and  _435
REMARK  169  A    between atoms: _438  and  _440
REMARK  170  A    between atoms: _440  and  _441
REMARK  171  A    between atoms: _443  and  _445
REMARK  172  A    between atoms: _445  and  _446
REMARK  173  A    between atoms: _445  and  _448
REMARK  174  A    between atoms: _448  and  _449
REMARK  175  A    between atoms: _454  and  _455
REMARK  176  A    between atoms: _457  and  _459
REMARK  177  A    between atoms: _459  and  _460
REMARK  178  A    between atoms: _459  and  _462
REMARK  179  A    between atoms: _462  and  _463
REMARK  180  A    between atoms: _466  and  _468
REMARK  181  A    between atoms: _468  and  _469
REMARK  182  A    between atoms: _468  and  _471
REMARK  183  A    between atoms: _471  and  _472
REMARK  184  A    between atoms: _472  and  _473
REMARK  185  A    between atoms: _473  and  _474
REMARK  186  A    between atoms: _483  and  _485
REMARK  187  A    between atoms: _485  and  _486
REMARK  188  A    between atoms: _485  and  _488
REMARK  189  A    between atoms: _488  and  _489
REMARK  190  A    between atoms: _492  and  _494
REMARK  191  A    between atoms: _494  and  _495
REMARK  192  A    between atoms: _494  and  _497
REMARK  193  A    between atoms: _497  and  _498
REMARK  194  A    between atoms: _501  and  _503
REMARK  195  A    between atoms: _503  and  _504
REMARK  196  A    between atoms: _503  and  _506
REMARK  197  A    between atoms: _506  and  _507
REMARK  198  A    between atoms: _507  and  _508
REMARK  199  A    between atoms: _508  and  _509
REMARK  200  A    between atoms: _518  and  _520
REMARK  201  A    between atoms: _520  and  _521
REMARK  202  A    between atoms: _520  and  _523
REMARK  203  A    between atoms: _523  and  _524
REMARK  204  A    between atoms: _524  and  _525
REMARK  205  A    between atoms: _530  and  _532
REMARK  206  A    between atoms: _532  and  _533
REMARK  207  A    between atoms: _532  and  _535
REMARK  208  A    between atoms: _535  and  _536
REMARK  209  A    between atoms: _536  and  _537
REMARK  210  A    between atoms: _537  and  _538
REMARK  211  A    between atoms: _547  and  _549
REMARK  212  A    between atoms: _549  and  _550
REMARK  213  A    between atoms: _553  and  _555
REMARK  214  A    between atoms: _555  and  _556
REMARK  215  A    between atoms: _558  and  _560
REMARK  216  A    between atoms: _560  and  _561
REMARK  217  A    between atoms: _560  and  _563
REMARK  218  A    between atoms: _563  and  _564
REMARK  219  A    between atoms: _567  and  _569
REMARK  220  A    between atoms: _569  and  _570
REMARK  221  A    between atoms: _569  and  _572
REMARK  222  A    between atoms: _572  and  _573
REMARK  223  A    between atoms: _573  and  _574
REMARK  224  A    between atoms: _574  and  _575
REMARK  225  A    between atoms: _584  and  _586
REMARK  226  A    between atoms: _586  and  _587
REMARK  227  A    between atoms: _586  and  _589
REMARK  228  A    between atoms: _592  and  _594
REMARK  229  A    between atoms: _594  and  _595
REMARK  230  A    between atoms: _594  and  _597
REMARK  231  A    between atoms: _597  and  _598
REMARK  232  A    between atoms: _603  and  _604
REMARK  233  A    between atoms: _606  and  _608
REMARK  234  A    between atoms: _608  and  _609
REMARK  235  A    between atoms: _608  and  _611
REMARK  236  A    between atoms: _611  and  _612
REMARK  237  A    between atoms: _614  and  _616
REMARK  238  A    between atoms: _616  and  _617
REMARK  239  A    between atoms: _616  and  _619
REMARK  240  A    between atoms: _619  and  _620
REMARK  241  A    between atoms: _625  and  _627
REMARK  242  A    between atoms: _627  and  _628
REMARK  243  A    between atoms: _627  and  _630
REMARK  244  A    between atoms: _630  and  _631
REMARK  245  A    between atoms: _631  and  _632
REMARK  246  A    between atoms: _635  and  _637
REMARK  247  A    between atoms: _637  and  _638
REMARK  248  A    between atoms: _637  and  _640
REMARK  249  A    between atoms: _640  and  _641
REMARK  250  A    between atoms: _646  and  _647
REMARK  251  A    between atoms: _649  and  _651
REMARK  252  A    between atoms: _651  and  _652
REMARK  253  A    between atoms: _655  and  _657
REMARK  254  A    between atoms: _657  and  _658
REMARK  255  A    between atoms: _657  and  _660
REMARK  256  A    between atoms: _660  and  _661
REMARK  257  A    between atoms: _665  and  _666
REMARK  258  A    between atoms: _671  and  _673
REMARK  259  A    between atoms: _673  and  _674
REMARK  260  A    between atoms: _673  and  _676
REMARK  261  A    between atoms: _676  and  _677
REMARK  262  A    between atoms: _680  and  _682
REMARK  263  A    between atoms: _682  and  _683
REMARK  264  A    between atoms: _682  and  _685
REMARK  265  A    between atoms: _685  and  _686
REMARK  266  A    between atoms: _686  and  _687
REMARK  267  A    between atoms: _692  and  _694
REMARK  268  A    between atoms: _694  and  _695
REMARK  269  A    between atoms: _694  and  _697
REMARK  270  A    between atoms: _697  and  _698
REMARK  271  A    between atoms: _701  and  _703
REMARK  272  A    between atoms: _703  and  _704
REMARK  273  A    between atoms: _703  and  _706
REMARK  274  A    between atoms: _706  and  _707
REMARK  275  A    between atoms: _710  and  _712
REMARK  276  A    between atoms: _712  and  _713
REMARK  277  A    between atoms: _712  and  _715
REMARK  278  A    between atoms: _715  and  _716
REMARK                            x       y       z     vdW  Elec       q    Type
REMARK                         _______ _______ _______ _____ _____    ______ ____
ROOT
ATOM      1  O   HOH     1      44.556   3.188 -25.968  0.00  0.00    +0.000 OA
ENDROOT
TORSDOF 0
REMARK  Name = ../refined-set-2016/4ksy/4ksy_pocket.pdb
REMARK  278 active torsions:
REMARK  status: ('A' for Active; 'I' for Inactive)
REMARK    1  A    between atoms: _1  and  _3
REMARK    2  A    between atoms: _3  and  _4
REMARK    3  A    between atoms: _6  and  _8
REMARK    4  A    between atoms: _8  and  _9
REMARK    5  A    between atoms: _8  and  _11
REMARK    6  A    between atoms: _11  and  _12
REMARK    7  A    between atoms: _15  and  _17
REMARK    8  A    between atoms: _17  and  _18
REMARK    9  A    between atoms: _21  and  _23
REMARK   10  A    between atoms: _23  and  _24
REMARK   11  A    between atoms: _23  and  _26
REMARK   12  A    between atoms: _26  and  _27
REMARK   13  A    between atoms: _37  and  _39
REMARK   14  A    between atoms: _39  and  _40
REMARK   15  A    between atoms: _39  and  _42
REMARK   16  A    between atoms: _42  and  _43
REMARK   17  A    between atoms: _45  and  _47
REMARK   18  A    between atoms: _47  and  _48
REMARK   19  A    between atoms: _47  and  _50
REMARK   20  A    between atoms: _50  and  _51
REMARK   21  A    between atoms: _56  and  _57
REMARK   22  A    between atoms: _59  and  _61
REMARK   23  A    between atoms: _61  and  _62
REMARK   24  A    between atoms: _61  and  _64
REMARK   25  A    between atoms: _64  and  _65
REMARK   26  A    between atoms: _70  and  _71
REMARK   27  A    between atoms: _73  and  _75
REMARK   28  A    between atoms: _75  and  _76
REMARK   29  A    between atoms: _75  and  _78
REMARK   30  A    between atoms: _78  and  _79
REMARK   31  A    between atoms: _82  and  _84
REMARK   32  A    between atoms: _84  and  _85
REMARK   33  A    between atoms: _87  and  _89
REMARK   34  A    between atoms: _89  and  _90
REMARK   35  A    between atoms: _89  and  _92
REMARK   36  A    between atoms: _92  and  _93
REMARK   37  A    between atoms: _98  and  _99
REMARK   38  A    between atoms: _101  and  _103
REMARK   39  A    between atoms: _103  and  _104
REMARK   40  A    between atoms: _103  and  _106
REMARK   41  A    between atoms: _106  and  _107
REMARK   42  A    between atoms: _110  and  _112
REMARK   43  A    between atoms: _112  and  _113
REMARK   44  A    between atoms: _112  and  _115
REMARK   45  A    between atoms: _115  and  _116
REMARK   46  A    between atoms: _116  and  _117
REMARK   47  A    between atoms: _117  and  _118
REMARK   48  A    between atoms: _127  and  _129
REMARK   49  A    between atoms: _129  and  _130
REMARK   50  A    between atoms: _129  and  _132
REMARK   51  A    between atoms: _132  and  _133
REMARK   52  A    between atoms: _136  and  _138
REMARK   53  A    between atoms: _138  and  _139
REMARK   54  A    between atoms: _138  and  _141
REMARK   55  A    between atoms: _141  and  _142
REMARK   56  A    between atoms: _145  and  _147
REMARK   57  A    between atoms: _147  and  _148
REMARK   58  A    between atoms: _147  and  _150
REMARK   59  A    between atoms: _150  and  _151
REMARK   60  A    between atoms: _154  and  _156
REMARK   61  A    between atoms: _156  and  _157
REMARK   62  A    between atoms: _156  and  _159
REMARK   63  A    between atoms: _159  and  _160
REMARK   64  A    between atoms: _163  and  _165
REMARK   65  A    between atoms: _165  and  _166
REMARK   66  A    between atoms: _165  and  _168
REMARK   67  A    between atoms: _168  and  _169
REMARK   68  A    between atoms: _169  and  _170
REMARK   69  A    between atoms: _175  and  _177
REMARK   70  A    between atoms: _177  and  _178
REMARK   71  A    between atoms: _177  and  _180
REMARK   72  A    between atoms: _180  and  _181
REMARK   73  A    between atoms: _181  and  _182
REMARK   74  A    between atoms: _182  and  _183
REMARK   75  A    between atoms: _192  and  _194
REMARK   76  A    between atoms: _194  and  _195
REMARK   77  A    between atoms: _198  and  _200
REMARK   78  A    between atoms: _200  and  _201
REMARK   79  A    between atoms: _200  and  _203
REMARK   80  A    between atoms: _203  and  _204
REMARK   81  A    between atoms: _207  and  _209
REMARK   82  A    between atoms: _209  and  _210
REMARK   83  A    between atoms: _209  and  _212
REMARK   84  A    between atoms: _212  and  _213
REMARK   85  A    between atoms: _216  and  _218
REMARK   86  A    between atoms: _218  and  _219
REMARK   87  A    between atoms: _218  and  _221
REMARK   88  A    between atoms: _221  and  _222
REMARK   89  A    between atoms: _222  and  _223
REMARK   90  A    between atoms: _223  and  _224
REMARK   91  A    between atoms: _233  and  _235
REMARK   92  A    between atoms: _235  and  _236
REMARK   93  A    between atoms: _235  and  _238
REMARK   94  A    between atoms: _241  and  _243
REMARK   95  A    between atoms: _243  and  _244
REMARK   96  A    between atoms: _243  and  _246
REMARK   97  A    between atoms: _246  and  _247
REMARK   98  A    between atoms: _252  and  _253
REMARK   99  A    between atoms: _255  and  _257
REMARK  100  A    between atoms: _257  and  _258
REMARK  101  A    between atoms: _257  and  _260
REMARK  102  A    between atoms: _260  and  _261
REMARK  103  A    between atoms: _263  and  _265
REMARK  104  A    between atoms: _265  and  _266
REMARK  105  A    between atoms: _265  and  _268
REMARK  106  A    between atoms: _268  and  _269
REMARK  107  A    between atoms: _274  and  _276
REMARK  108  A    between atoms: _276  and  _277
REMARK  109  A    between atoms: _276  and  _279
REMARK  110  A    between atoms: _279  and  _280
REMARK  111  A    between atoms: _280  and  _281
REMARK  112  A    between atoms: _284  and  _286
REMARK  113  A    between atoms: _286  and  _287
REMARK  114  A    between atoms: _286  and  _289
REMARK  115  A    between atoms: _289  and  _290
REMARK  116  A    between atoms: _295  and  _296
REMARK  117  A    between atoms: _298  and  _300
REMARK  118  A    between atoms: _300  and  _301
REMARK  119  A    between atoms: _304  and  _306
REMARK  120  A    between atoms: _306  and  _307
REMARK  121  A    between atoms: _306  and  _309
REMARK  122  A    between atoms: _309  and  _310
REMARK  123  A    between atoms: _314  and  _315
REMARK  124  A    between atoms: _320  and  _322
REMARK  125  A    between atoms: _322  and  _323
REMARK  126  A    between atoms: _322  and  _325
REMARK  127  A    between atoms: _325  and  _326
REMARK  128  A    between atoms: _329  and  _331
REMARK  129  A    between atoms: _331  and  _332
REMARK  130  A    between atoms: _331  and  _334
REMARK  131  A    between atoms: _334  and  _335
REMARK  132  A    between atoms: _335  and  _336
REMARK  133  A    between atoms: _341  and  _343
REMARK  134  A    between atoms: _343  and  _344
REMARK  135  A    between atoms: _343  and  _346
REMARK  136  A    between atoms: _346  and  _347
REMARK  137  A    between atoms: _350  and  _352
REMARK  138  A    between atoms: _352  and  _353
REMARK  139  A    between atoms: _352  and  _355
REMARK  140  A    between atoms: _355  and  _356
REMARK  141  A    between atoms: _362  and  _364
REMARK  142  A    between atoms: _364  and  _365
REMARK  143  A    between atoms: _364  and  _367
REMARK  144  A    between atoms: _367  and  _368
REMARK  145  A    between atoms: _371  and  _373
REMARK  146  A    between atoms: _373  and  _374
REMARK  147  A    between atoms: _377  and  _379
REMARK  148  A    between atoms: _379  and  _380
REMARK  149  A    between atoms: _379  and  _382
REMARK  150  A    between atoms: _382  and  _383
REMARK  151  A    between atoms: _393  and  _395
REMARK  152  A    between atoms: _395  and  _396
REMARK  153  A    between atoms: _395  and  _398
REMARK  154  A    between atoms: _398  and  _399
REMARK  155  A    between atoms: _401  and  _403
REMARK  156  A    between atoms: _403  and  _404
REMARK  157  A    between atoms: _403  and  _406
REMARK  158  A    between atoms: _406  and  _407
REMARK  159  A    between atoms: _412  and  _413
REMARK  160  A    between atoms: _415  and  _417
REMARK  161  A    between atoms: _417  and  _418
REMARK  162  A    between atoms: _417  and  _420
REMARK  163  A    between atoms: _420  and  _421
REMARK  164  A    between atoms: _426  and  _427
REMARK  165  A    between atoms: _429  and  _431
REMARK  166  A    between atoms: _431  and  _432
REMARK  167  A    between atoms: _431  and  _434
REMARK  168  A    between atoms: _434  and  _435
REMARK  169  A    between atoms: _438  and  _440
REMARK  170  A    between atoms: _440  and  _441
REMARK  171  A    between atoms: _443  and  _445
REMARK  172  A    between atoms: _445  and  _446
REMARK  173  A    between atoms: _445  and  _448
REMARK  174  A    between atoms: _448  and  _449
REMARK  175  A    between atoms: _454  and  _455
REMARK  176  A    between atoms: _457  and  _459
REMARK  177  A    between atoms: _459  and  _460
REMARK  178  A    between atoms: _459  and  _462
REMARK  179  A    between atoms: _462  and  _463
REMARK  180  A    between atoms: _466  and  _468
REMARK  181  A    between atoms: _468  and  _469
REMARK  182  A    between atoms: _468  and  _471
REMARK  183  A    between atoms: _471  and  _472
REMARK  184  A    between atoms: _472  and  _473
REMARK  185  A    between atoms: _473  and  _474
REMARK  186  A    between atoms: _483  and  _485
REMARK  187  A    between atoms: _485  and  _486
REMARK  188  A    between atoms: _485  and  _488
REMARK  189  A    between atoms: _488  and  _489
REMARK  190  A    between atoms: _492  and  _494
REMARK  191  A    between atoms: _494  and  _495
REMARK  192  A    between atoms: _494  and  _497
REMARK  193  A    between atoms: _497  and  _498
REMARK  194  A    between atoms: _501  and  _503
REMARK  195  A    between atoms: _503  and  _504
REMARK  196  A    between atoms: _503  and  _506
REMARK  197  A    between atoms: _506  and  _507
REMARK  198  A    between atoms: _507  and  _508
REMARK  199  A    between atoms: _508  and  _509
REMARK  200  A    between atoms: _518  and  _520
REMARK  201  A    between atoms: _520  and  _521
REMARK  202  A    between atoms: _520  and  _523
REMARK  203  A    between atoms: _523  and  _524
REMARK  204  A    between atoms: _524  and  _525
REMARK  205  A    between atoms: _530  and  _532
REMARK  206  A    between atoms: _532  and  _533
REMARK  207  A    between atoms: _532  and  _535
REMARK  208  A    between atoms: _535  and  _536
REMARK  209  A    between atoms: _536  and  _537
REMARK  210  A    between atoms: _537  and  _538
REMARK  211  A    between atoms: _547  and  _549
REMARK  212  A    between atoms: _549  and  _550
REMARK  213  A    between atoms: _553  and  _555
REMARK  214  A    between atoms: _555  and  _556
REMARK  215  A    between atoms: _558  and  _560
REMARK  216  A    between atoms: _560  and  _561
REMARK  217  A    between atoms: _560  and  _563
REMARK  218  A    between atoms: _563  and  _564
REMARK  219  A    between atoms: _567  and  _569
REMARK  220  A    between atoms: _569  and  _570
REMARK  221  A    between atoms: _569  and  _572
REMARK  222  A    between atoms: _572  and  _573
REMARK  223  A    between atoms: _573  and  _574
REMARK  224  A    between atoms: _574  and  _575
REMARK  225  A    between atoms: _584  and  _586
REMARK  226  A    between atoms: _586  and  _587
REMARK  227  A    between atoms: _586  and  _589
REMARK  228  A    between atoms: _592  and  _594
REMARK  229  A    between atoms: _594  and  _595
REMARK  230  A    between atoms: _594  and  _597
REMARK  231  A    between atoms: _597  and  _598
REMARK  232  A    between atoms: _603  and  _604
REMARK  233  A    between atoms: _606  and  _608
REMARK  234  A    between atoms: _608  and  _609
REMARK  235  A    between atoms: _608  and  _611
REMARK  236  A    between atoms: _611  and  _612
REMARK  237  A    between atoms: _614  and  _616
REMARK  238  A    between atoms: _616  and  _617
REMARK  239  A    between atoms: _616  and  _619
REMARK  240  A    between atoms: _619  and  _620
REMARK  241  A    between atoms: _625  and  _627
REMARK  242  A    between atoms: _627  and  _628
REMARK  243  A    between atoms: _627  and  _630
REMARK  244  A    between atoms: _630  and  _631
REMARK  245  A    between atoms: _631  and  _632
REMARK  246  A    between atoms: _635  and  _637
REMARK  247  A    between atoms: _637  and  _638
REMARK  248  A    between atoms: _637  and  _640
REMARK  249  A    between atoms: _640  and  _641
REMARK  250  A    between atoms: _646  and  _647
REMARK  251  A    between atoms: _649  and  _651
REMARK  252  A    between atoms: _651  and  _652
REMARK  253  A    between atoms: _655  and  _657
REMARK  254  A    between atoms: _657  and  _658
REMARK  255  A    between atoms: _657  and  _660
REMARK  256  A    between atoms: _660  and  _661
REMARK  257  A    between atoms: _665  and  _666
REMARK  258  A    between atoms: _671  and  _673
REMARK  259  A    between atoms: _673  and  _674
REMARK  260  A    between atoms: _673  and  _676
REMARK  261  A    between atoms: _676  and  _677
REMARK  262  A    between atoms: _680  and  _682
REMARK  263  A    between atoms: _682  and  _683
REMARK  264  A    between atoms: _682  and  _685
REMARK  265  A    between atoms: _685  and  _686
REMARK  266  A    between atoms: _686  and  _687
REMARK  267  A    between atoms: _692  and  _694
REMARK  268  A    between atoms: _694  and  _695
REMARK  269  A    between atoms: _694  and  _697
REMARK  270  A    between atoms: _697  and  _698
REMARK  271  A    between atoms: _701  and  _703
REMARK  272  A    between atoms: _703  and  _704
REMARK  273  A    between atoms: _703  and  _706
REMARK  274  A    between atoms: _706  and  _707
REMARK  275  A    between atoms: _710  and  _712
REMARK  276  A    between atoms: _712  and  _713
REMARK  277  A    between atoms: _712  and  _715
REMARK  278  A    between atoms: _715  and  _716
REMARK                            x       y       z     vdW  Elec       q    Type
REMARK                         _______ _______ _______ _____ _____    ______ ____
ROOT
ATOM      1  O   HOH     1      38.497   7.435 -21.152  0.00  0.00    +0.000 OA
ENDROOT
TORSDOF 0
REMARK  Name = ../refined-set-2016/4ksy/4ksy_pocket.pdb
REMARK  278 active torsions:
REMARK  status: ('A' for Active; 'I' for Inactive)
REMARK    1  A    between atoms: _1  and  _3
REMARK    2  A    between atoms: _3  and  _4
REMARK    3  A    between atoms: _6  and  _8
REMARK    4  A    between atoms: _8  and  _9
REMARK    5  A    between atoms: _8  and  _11
REMARK    6  A    between atoms: _11  and  _12
REMARK    7  A    between atoms: _15  and  _17
REMARK    8  A    between atoms: _17  and  _18
REMARK    9  A    between atoms: _21  and  _23
REMARK   10  A    between atoms: _23  and  _24
REMARK   11  A    between atoms: _23  and  _26
REMARK   12  A    between atoms: _26  and  _27
REMARK   13  A    between atoms: _37  and  _39
REMARK   14  A    between atoms: _39  and  _40
REMARK   15  A    between atoms: _39  and  _42
REMARK   16  A    between atoms: _42  and  _43
REMARK   17  A    between atoms: _45  and  _47
REMARK   18  A    between atoms: _47  and  _48
REMARK   19  A    between atoms: _47  and  _50
REMARK   20  A    between atoms: _50  and  _51
REMARK   21  A    between atoms: _56  and  _57
REMARK   22  A    between atoms: _59  and  _61
REMARK   23  A    between atoms: _61  and  _62
REMARK   24  A    between atoms: _61  and  _64
REMARK   25  A    between atoms: _64  and  _65
REMARK   26  A    between atoms: _70  and  _71
REMARK   27  A    between atoms: _73  and  _75
REMARK   28  A    between atoms: _75  and  _76
REMARK   29  A    between atoms: _75  and  _78
REMARK   30  A    between atoms: _78  and  _79
REMARK   31  A    between atoms: _82  and  _84
REMARK   32  A    between atoms: _84  and  _85
REMARK   33  A    between atoms: _87  and  _89
REMARK   34  A    between atoms: _89  and  _90
REMARK   35  A    between atoms: _89  and  _92
REMARK   36  A    between atoms: _92  and  _93
REMARK   37  A    between atoms: _98  and  _99
REMARK   38  A    between atoms: _101  and  _103
REMARK   39  A    between atoms: _103  and  _104
REMARK   40  A    between atoms: _103  and  _106
REMARK   41  A    between atoms: _106  and  _107
REMARK   42  A    between atoms: _110  and  _112
REMARK   43  A    between atoms: _112  and  _113
REMARK   44  A    between atoms: _112  and  _115
REMARK   45  A    between atoms: _115  and  _116
REMARK   46  A    between atoms: _116  and  _117
REMARK   47  A    between atoms: _117  and  _118
REMARK   48  A    between atoms: _127  and  _129
REMARK   49  A    between atoms: _129  and  _130
REMARK   50  A    between atoms: _129  and  _132
REMARK   51  A    between atoms: _132  and  _133
REMARK   52  A    between atoms: _136  and  _138
REMARK   53  A    between atoms: _138  and  _139
REMARK   54  A    between atoms: _138  and  _141
REMARK   55  A    between atoms: _141  and  _142
REMARK   56  A    between atoms: _145  and  _147
REMARK   57  A    between atoms: _147  and  _148
REMARK   58  A    between atoms: _147  and  _150
REMARK   59  A    between atoms: _150  and  _151
REMARK   60  A    between atoms: _154  and  _156
REMARK   61  A    between atoms: _156  and  _157
REMARK   62  A    between atoms: _156  and  _159
REMARK   63  A    between atoms: _159  and  _160
REMARK   64  A    between atoms: _163  and  _165
REMARK   65  A    between atoms: _165  and  _166
REMARK   66  A    between atoms: _165  and  _168
REMARK   67  A    between atoms: _168  and  _169
REMARK   68  A    between atoms: _169  and  _170
REMARK   69  A    between atoms: _175  and  _177
REMARK   70  A    between atoms: _177  and  _178
REMARK   71  A    between atoms: _177  and  _180
REMARK   72  A    between atoms: _180  and  _181
REMARK   73  A    between atoms: _181  and  _182
REMARK   74  A    between atoms: _182  and  _183
REMARK   75  A    between atoms: _192  and  _194
REMARK   76  A    between atoms: _194  and  _195
REMARK   77  A    between atoms: _198  and  _200
REMARK   78  A    between atoms: _200  and  _201
REMARK   79  A    between atoms: _200  and  _203
REMARK   80  A    between atoms: _203  and  _204
REMARK   81  A    between atoms: _207  and  _209
REMARK   82  A    between atoms: _209  and  _210
REMARK   83  A    between atoms: _209  and  _212
REMARK   84  A    between atoms: _212  and  _213
REMARK   85  A    between atoms: _216  and  _218
REMARK   86  A    between atoms: _218  and  _219
REMARK   87  A    between atoms: _218  and  _221
REMARK   88  A    between atoms: _221  and  _222
REMARK   89  A    between atoms: _222  and  _223
REMARK   90  A    between atoms: _223  and  _224
REMARK   91  A    between atoms: _233  and  _235
REMARK   92  A    between atoms: _235  and  _236
REMARK   93  A    between atoms: _235  and  _238
REMARK   94  A    between atoms: _241  and  _243
REMARK   95  A    between atoms: _243  and  _244
REMARK   96  A    between atoms: _243  and  _246
REMARK   97  A    between atoms: _246  and  _247
REMARK   98  A    between atoms: _252  and  _253
REMARK   99  A    between atoms: _255  and  _257
REMARK  100  A    between atoms: _257  and  _258
REMARK  101  A    between atoms: _257  and  _260
REMARK  102  A    between atoms: _260  and  _261
REMARK  103  A    between atoms: _263  and  _265
REMARK  104  A    between atoms: _265  and  _266
REMARK  105  A    between atoms: _265  and  _268
REMARK  106  A    between atoms: _268  and  _269
REMARK  107  A    between atoms: _274  and  _276
REMARK  108  A    between atoms: _276  and  _277
REMARK  109  A    between atoms: _276  and  _279
REMARK  110  A    between atoms: _279  and  _280
REMARK  111  A    between atoms: _280  and  _281
REMARK  112  A    between atoms: _284  and  _286
REMARK  113  A    between atoms: _286  and  _287
REMARK  114  A    between atoms: _286  and  _289
REMARK  115  A    between atoms: _289  and  _290
REMARK  116  A    between atoms: _295  and  _296
REMARK  117  A    between atoms: _298  and  _300
REMARK  118  A    between atoms: _300  and  _301
REMARK  119  A    between atoms: _304  and  _306
REMARK  120  A    between atoms: _306  and  _307
REMARK  121  A    between atoms: _306  and  _309
REMARK  122  A    between atoms: _309  and  _310
REMARK  123  A    between atoms: _314  and  _315
REMARK  124  A    between atoms: _320  and  _322
REMARK  125  A    between atoms: _322  and  _323
REMARK  126  A    between atoms: _322  and  _325
REMARK  127  A    between atoms: _325  and  _326
REMARK  128  A    between atoms: _329  and  _331
REMARK  129  A    between atoms: _331  and  _332
REMARK  130  A    between atoms: _331  and  _334
REMARK  131  A    between atoms: _334  and  _335
REMARK  132  A    between atoms: _335  and  _336
REMARK  133  A    between atoms: _341  and  _343
REMARK  134  A    between atoms: _343  and  _344
REMARK  135  A    between atoms: _343  and  _346
REMARK  136  A    between atoms: _346  and  _347
REMARK  137  A    between atoms: _350  and  _352
REMARK  138  A    between atoms: _352  and  _353
REMARK  139  A    between atoms: _352  and  _355
REMARK  140  A    between atoms: _355  and  _356
REMARK  141  A    between atoms: _362  and  _364
REMARK  142  A    between atoms: _364  and  _365
REMARK  143  A    between atoms: _364  and  _367
REMARK  144  A    between atoms: _367  and  _368
REMARK  145  A    between atoms: _371  and  _373
REMARK  146  A    between atoms: _373  and  _374
REMARK  147  A    between atoms: _377  and  _379
REMARK  148  A    between atoms: _379  and  _380
REMARK  149  A    between atoms: _379  and  _382
REMARK  150  A    between atoms: _382  and  _383
REMARK  151  A    between atoms: _393  and  _395
REMARK  152  A    between atoms: _395  and  _396
REMARK  153  A    between atoms: _395  and  _398
REMARK  154  A    between atoms: _398  and  _399
REMARK  155  A    between atoms: _401  and  _403
REMARK  156  A    between atoms: _403  and  _404
REMARK  157  A    between atoms: _403  and  _406
REMARK  158  A    between atoms: _406  and  _407
REMARK  159  A    between atoms: _412  and  _413
REMARK  160  A    between atoms: _415  and  _417
REMARK  161  A    between atoms: _417  and  _418
REMARK  162  A    between atoms: _417  and  _420
REMARK  163  A    between atoms: _420  and  _421
REMARK  164  A    between atoms: _426  and  _427
REMARK  165  A    between atoms: _429  and  _431
REMARK  166  A    between atoms: _431  and  _432
REMARK  167  A    between atoms: _431  and  _434
REMARK  168  A    between atoms: _434  and  _435
REMARK  169  A    between atoms: _438  and  _440
REMARK  170  A    between atoms: _440  and  _441
REMARK  171  A    between atoms: _443  and  _445
REMARK  172  A    between atoms: _445  and  _446
REMARK  173  A    between atoms: _445  and  _448
REMARK  174  A    between atoms: _448  and  _449
REMARK  175  A    between atoms: _454  and  _455
REMARK  176  A    between atoms: _457  and  _459
REMARK  177  A    between atoms: _459  and  _460
REMARK  178  A    between atoms: _459  and  _462
REMARK  179  A    between atoms: _462  and  _463
REMARK  180  A    between atoms: _466  and  _468
REMARK  181  A    between atoms: _468  and  _469
REMARK  182  A    between atoms: _468  and  _471
REMARK  183  A    between atoms: _471  and  _472
REMARK  184  A    between atoms: _472  and  _473
REMARK  185  A    between atoms: _473  and  _474
REMARK  186  A    between atoms: _483  and  _485
REMARK  187  A    between atoms: _485  and  _486
REMARK  188  A    between atoms: _485  and  _488
REMARK  189  A    between atoms: _488  and  _489
REMARK  190  A    between atoms: _492  and  _494
REMARK  191  A    between atoms: _494  and  _495
REMARK  192  A    between atoms: _494  and  _497
REMARK  193  A    between atoms: _497  and  _498
REMARK  194  A    between atoms: _501  and  _503
REMARK  195  A    between atoms: _503  and  _504
REMARK  196  A    between atoms: _503  and  _506
REMARK  197  A    between atoms: _506  and  _507
REMARK  198  A    between atoms: _507  and  _508
REMARK  199  A    between atoms: _508  and  _509
REMARK  200  A    between atoms: _518  and  _520
REMARK  201  A    between atoms: _520  and  _521
REMARK  202  A    between atoms: _520  and  _523
REMARK  203  A    between atoms: _523  and  _524
REMARK  204  A    between atoms: _524  and  _525
REMARK  205  A    between atoms: _530  and  _532
REMARK  206  A    between atoms: _532  and  _533
REMARK  207  A    between atoms: _532  and  _535
REMARK  208  A    between atoms: _535  and  _536
REMARK  209  A    between atoms: _536  and  _537
REMARK  210  A    between atoms: _537  and  _538
REMARK  211  A    between atoms: _547  and  _549
REMARK  212  A    between atoms: _549  and  _550
REMARK  213  A    between atoms: _553  and  _555
REMARK  214  A    between atoms: _555  and  _556
REMARK  215  A    between atoms: _558  and  _560
REMARK  216  A    between atoms: _560  and  _561
REMARK  217  A    between atoms: _560  and  _563
REMARK  218  A    between atoms: _563  and  _564
REMARK  219  A    between atoms: _567  and  _569
REMARK  220  A    between atoms: _569  and  _570
REMARK  221  A    between atoms: _569  and  _572
REMARK  222  A    between atoms: _572  and  _573
REMARK  223  A    between atoms: _573  and  _574
REMARK  224  A    between atoms: _574  and  _575
REMARK  225  A    between atoms: _584  and  _586
REMARK  226  A    between atoms: _586  and  _587
REMARK  227  A    between atoms: _586  and  _589
REMARK  228  A    between atoms: _592  and  _594
REMARK  229  A    between atoms: _594  and  _595
REMARK  230  A    between atoms: _594  and  _597
REMARK  231  A    between atoms: _597  and  _598
REMARK  232  A    between atoms: _603  and  _604
REMARK  233  A    between atoms: _606  and  _608
REMARK  234  A    between atoms: _608  and  _609
REMARK  235  A    between atoms: _608  and  _611
REMARK  236  A    between atoms: _611  and  _612
REMARK  237  A    between atoms: _614  and  _616
REMARK  238  A    between atoms: _616  and  _617
REMARK  239  A    between atoms: _616  and  _619
REMARK  240  A    between atoms: _619  and  _620
REMARK  241  A    between atoms: _625  and  _627
REMARK  242  A    between atoms: _627  and  _628
REMARK  243  A    between atoms: _627  and  _630
REMARK  244  A    between atoms: _630  and  _631
REMARK  245  A    between atoms: _631  and  _632
REMARK  246  A    between atoms: _635  and  _637
REMARK  247  A    between atoms: _637  and  _638
REMARK  248  A    between atoms: _637  and  _640
REMARK  249  A    between atoms: _640  and  _641
REMARK  250  A    between atoms: _646  and  _647
REMARK  251  A    between atoms: _649  and  _651
REMARK  252  A    between atoms: _651  and  _652
REMARK  253  A    between atoms: _655  and  _657
REMARK  254  A    between atoms: _657  and  _658
REMARK  255  A    between atoms: _657  and  _660
REMARK  256  A    between atoms: _660  and  _661
REMARK  257  A    between atoms: _665  and  _666
REMARK  258  A    between atoms: _671  and  _673
REMARK  259  A    between atoms: _673  and  _674
REMARK  260  A    between atoms: _673  and  _676
REMARK  261  A    between atoms: _676  and  _677
REMARK  262  A    between atoms: _680  and  _682
REMARK  263  A    between atoms: _682  and  _683
REMARK  264  A    between atoms: _682  and  _685
REMARK  265  A    between atoms: _685  and  _686
REMARK  266  A    between atoms: _686  and  _687
REMARK  267  A    between atoms: _692  and  _694
REMARK  268  A    between atoms: _694  and  _695
REMARK  269  A    between atoms: _694  and  _697
REMARK  270  A    between atoms: _697  and  _698
REMARK  271  A    between atoms: _701  and  _703
REMARK  272  A    between atoms: _703  and  _704
REMARK  273  A    between atoms: _703  and  _706
REMARK  274  A    between atoms: _706  and  _707
REMARK  275  A    between atoms: _710  and  _712
REMARK  276  A    between atoms: _712  and  _713
REMARK  277  A    between atoms: _712  and  _715
REMARK  278  A    between atoms: _715  and  _716
REMARK                            x       y       z     vdW  Elec       q    Type
REMARK                         _______ _______ _______ _____ _____    ______ ____
ROOT
ATOM      1  O   HOH     1      44.900  -0.237 -20.291  0.00  0.00    +0.000 OA
ENDROOT
TORSDOF 0
REMARK  Name = ../refined-set-2016/4ksy/4ksy_pocket.pdb
REMARK  278 active torsions:
REMARK  status: ('A' for Active; 'I' for Inactive)
REMARK    1  A    between atoms: _1  and  _3
REMARK    2  A    between atoms: _3  and  _4
REMARK    3  A    between atoms: _6  and  _8
REMARK    4  A    between atoms: _8  and  _9
REMARK    5  A    between atoms: _8  and  _11
REMARK    6  A    between atoms: _11  and  _12
REMARK    7  A    between atoms: _15  and  _17
REMARK    8  A    between atoms: _17  and  _18
REMARK    9  A    between atoms: _21  and  _23
REMARK   10  A    between atoms: _23  and  _24
REMARK   11  A    between atoms: _23  and  _26
REMARK   12  A    between atoms: _26  and  _27
REMARK   13  A    between atoms: _37  and  _39
REMARK   14  A    between atoms: _39  and  _40
REMARK   15  A    between atoms: _39  and  _42
REMARK   16  A    between atoms: _42  and  _43
REMARK   17  A    between atoms: _45  and  _47
REMARK   18  A    between atoms: _47  and  _48
REMARK   19  A    between atoms: _47  and  _50
REMARK   20  A    between atoms: _50  and  _51
REMARK   21  A    between atoms: _56  and  _57
REMARK   22  A    between atoms: _59  and  _61
REMARK   23  A    between atoms: _61  and  _62
REMARK   24  A    between atoms: _61  and  _64
REMARK   25  A    between atoms: _64  and  _65
REMARK   26  A    between atoms: _70  and  _71
REMARK   27  A    between atoms: _73  and  _75
REMARK   28  A    between atoms: _75  and  _76
REMARK   29  A    between atoms: _75  and  _78
REMARK   30  A    between atoms: _78  and  _79
REMARK   31  A    between atoms: _82  and  _84
REMARK   32  A    between atoms: _84  and  _85
REMARK   33  A    between atoms: _87  and  _89
REMARK   34  A    between atoms: _89  and  _90
REMARK   35  A    between atoms: _89  and  _92
REMARK   36  A    between atoms: _92  and  _93
REMARK   37  A    between atoms: _98  and  _99
REMARK   38  A    between atoms: _101  and  _103
REMARK   39  A    between atoms: _103  and  _104
REMARK   40  A    between atoms: _103  and  _106
REMARK   41  A    between atoms: _106  and  _107
REMARK   42  A    between atoms: _110  and  _112
REMARK   43  A    between atoms: _112  and  _113
REMARK   44  A    between atoms: _112  and  _115
REMARK   45  A    between atoms: _115  and  _116
REMARK   46  A    between atoms: _116  and  _117
REMARK   47  A    between atoms: _117  and  _118
REMARK   48  A    between atoms: _127  and  _129
REMARK   49  A    between atoms: _129  and  _130
REMARK   50  A    between atoms: _129  and  _132
REMARK   51  A    between atoms: _132  and  _133
REMARK   52  A    between atoms: _136  and  _138
REMARK   53  A    between atoms: _138  and  _139
REMARK   54  A    between atoms: _138  and  _141
REMARK   55  A    between atoms: _141  and  _142
REMARK   56  A    between atoms: _145  and  _147
REMARK   57  A    between atoms: _147  and  _148
REMARK   58  A    between atoms: _147  and  _150
REMARK   59  A    between atoms: _150  and  _151
REMARK   60  A    between atoms: _154  and  _156
REMARK   61  A    between atoms: _156  and  _157
REMARK   62  A    between atoms: _156  and  _159
REMARK   63  A    between atoms: _159  and  _160
REMARK   64  A    between atoms: _163  and  _165
REMARK   65  A    between atoms: _165  and  _166
REMARK   66  A    between atoms: _165  and  _168
REMARK   67  A    between atoms: _168  and  _169
REMARK   68  A    between atoms: _169  and  _170
REMARK   69  A    between atoms: _175  and  _177
REMARK   70  A    between atoms: _177  and  _178
REMARK   71  A    between atoms: _177  and  _180
REMARK   72  A    between atoms: _180  and  _181
REMARK   73  A    between atoms: _181  and  _182
REMARK   74  A    between atoms: _182  and  _183
REMARK   75  A    between atoms: _192  and  _194
REMARK   76  A    between atoms: _194  and  _195
REMARK   77  A    between atoms: _198  and  _200
REMARK   78  A    between atoms: _200  and  _201
REMARK   79  A    between atoms: _200  and  _203
REMARK   80  A    between atoms: _203  and  _204
REMARK   81  A    between atoms: _207  and  _209
REMARK   82  A    between atoms: _209  and  _210
REMARK   83  A    between atoms: _209  and  _212
REMARK   84  A    between atoms: _212  and  _213
REMARK   85  A    between atoms: _216  and  _218
REMARK   86  A    between atoms: _218  and  _219
REMARK   87  A    between atoms: _218  and  _221
REMARK   88  A    between atoms: _221  and  _222
REMARK   89  A    between atoms: _222  and  _223
REMARK   90  A    between atoms: _223  and  _224
REMARK   91  A    between atoms: _233  and  _235
REMARK   92  A    between atoms: _235  and  _236
REMARK   93  A    between atoms: _235  and  _238
REMARK   94  A    between atoms: _241  and  _243
REMARK   95  A    between atoms: _243  and  _244
REMARK   96  A    between atoms: _243  and  _246
REMARK   97  A    between atoms: _246  and  _247
REMARK   98  A    between atoms: _252  and  _253
REMARK   99  A    between atoms: _255  and  _257
REMARK  100  A    between atoms: _257  and  _258
REMARK  101  A    between atoms: _257  and  _260
REMARK  102  A    between atoms: _260  and  _261
REMARK  103  A    between atoms: _263  and  _265
REMARK  104  A    between atoms: _265  and  _266
REMARK  105  A    between atoms: _265  and  _268
REMARK  106  A    between atoms: _268  and  _269
REMARK  107  A    between atoms: _274  and  _276
REMARK  108  A    between atoms: _276  and  _277
REMARK  109  A    between atoms: _276  and  _279
REMARK  110  A    between atoms: _279  and  _280
REMARK  111  A    between atoms: _280  and  _281
REMARK  112  A    between atoms: _284  and  _286
REMARK  113  A    between atoms: _286  and  _287
REMARK  114  A    between atoms: _286  and  _289
REMARK  115  A    between atoms: _289  and  _290
REMARK  116  A    between atoms: _295  and  _296
REMARK  117  A    between atoms: _298  and  _300
REMARK  118  A    between atoms: _300  and  _301
REMARK  119  A    between atoms: _304  and  _306
REMARK  120  A    between atoms: _306  and  _307
REMARK  121  A    between atoms: _306  and  _309
REMARK  122  A    between atoms: _309  and  _310
REMARK  123  A    between atoms: _314  and  _315
REMARK  124  A    between atoms: _320  and  _322
REMARK  125  A    between atoms: _322  and  _323
REMARK  126  A    between atoms: _322  and  _325
REMARK  127  A    between atoms: _325  and  _326
REMARK  128  A    between atoms: _329  and  _331
REMARK  129  A    between atoms: _331  and  _332
REMARK  130  A    between atoms: _331  and  _334
REMARK  131  A    between atoms: _334  and  _335
REMARK  132  A    between atoms: _335  and  _336
REMARK  133  A    between atoms: _341  and  _343
REMARK  134  A    between atoms: _343  and  _344
REMARK  135  A    between atoms: _343  and  _346
REMARK  136  A    between atoms: _346  and  _347
REMARK  137  A    between atoms: _350  and  _352
REMARK  138  A    between atoms: _352  and  _353
REMARK  139  A    between atoms: _352  and  _355
REMARK  140  A    between atoms: _355  and  _356
REMARK  141  A    between atoms: _362  and  _364
REMARK  142  A    between atoms: _364  and  _365
REMARK  143  A    between atoms: _364  and  _367
REMARK  144  A    between atoms: _367  and  _368
REMARK  145  A    between atoms: _371  and  _373
REMARK  146  A    between atoms: _373  and  _374
REMARK  147  A    between atoms: _377  and  _379
REMARK  148  A    between atoms: _379  and  _380
REMARK  149  A    between atoms: _379  and  _382
REMARK  150  A    between atoms: _382  and  _383
REMARK  151  A    between atoms: _393  and  _395
REMARK  152  A    between atoms: _395  and  _396
REMARK  153  A    between atoms: _395  and  _398
REMARK  154  A    between atoms: _398  and  _399
REMARK  155  A    between atoms: _401  and  _403
REMARK  156  A    between atoms: _403  and  _404
REMARK  157  A    between atoms: _403  and  _406
REMARK  158  A    between atoms: _406  and  _407
REMARK  159  A    between atoms: _412  and  _413
REMARK  160  A    between atoms: _415  and  _417
REMARK  161  A    between atoms: _417  and  _418
REMARK  162  A    between atoms: _417  and  _420
REMARK  163  A    between atoms: _420  and  _421
REMARK  164  A    between atoms: _426  and  _427
REMARK  165  A    between atoms: _429  and  _431
REMARK  166  A    between atoms: _431  and  _432
REMARK  167  A    between atoms: _431  and  _434
REMARK  168  A    between atoms: _434  and  _435
REMARK  169  A    between atoms: _438  and  _440
REMARK  170  A    between atoms: _440  and  _441
REMARK  171  A    between atoms: _443  and  _445
REMARK  172  A    between atoms: _445  and  _446
REMARK  173  A    between atoms: _445  and  _448
REMARK  174  A    between atoms: _448  and  _449
REMARK  175  A    between atoms: _454  and  _455
REMARK  176  A    between atoms: _457  and  _459
REMARK  177  A    between atoms: _459  and  _460
REMARK  178  A    between atoms: _459  and  _462
REMARK  179  A    between atoms: _462  and  _463
REMARK  180  A    between atoms: _466  and  _468
REMARK  181  A    between atoms: _468  and  _469
REMARK  182  A    between atoms: _468  and  _471
REMARK  183  A    between atoms: _471  and  _472
REMARK  184  A    between atoms: _472  and  _473
REMARK  185  A    between atoms: _473  and  _474
REMARK  186  A    between atoms: _483  and  _485
REMARK  187  A    between atoms: _485  and  _486
REMARK  188  A    between atoms: _485  and  _488
REMARK  189  A    between atoms: _488  and  _489
REMARK  190  A    between atoms: _492  and  _494
REMARK  191  A    between atoms: _494  and  _495
REMARK  192  A    between atoms: _494  and  _497
REMARK  193  A    between atoms: _497  and  _498
REMARK  194  A    between atoms: _501  and  _503
REMARK  195  A    between atoms: _503  and  _504
REMARK  196  A    between atoms: _503  and  _506
REMARK  197  A    between atoms: _506  and  _507
REMARK  198  A    between atoms: _507  and  _508
REMARK  199  A    between atoms: _508  and  _509
REMARK  200  A    between atoms: _518  and  _520
REMARK  201  A    between atoms: _520  and  _521
REMARK  202  A    between atoms: _520  and  _523
REMARK  203  A    between atoms: _523  and  _524
REMARK  204  A    between atoms: _524  and  _525
REMARK  205  A    between atoms: _530  and  _532
REMARK  206  A    between atoms: _532  and  _533
REMARK  207  A    between atoms: _532  and  _535
REMARK  208  A    between atoms: _535  and  _536
REMARK  209  A    between atoms: _536  and  _537
REMARK  210  A    between atoms: _537  and  _538
REMARK  211  A    between atoms: _547  and  _549
REMARK  212  A    between atoms: _549  and  _550
REMARK  213  A    between atoms: _553  and  _555
REMARK  214  A    between atoms: _555  and  _556
REMARK  215  A    between atoms: _558  and  _560
REMARK  216  A    between atoms: _560  and  _561
REMARK  217  A    between atoms: _560  and  _563
REMARK  218  A    between atoms: _563  and  _564
REMARK  219  A    between atoms: _567  and  _569
REMARK  220  A    between atoms: _569  and  _570
REMARK  221  A    between atoms: _569  and  _572
REMARK  222  A    between atoms: _572  and  _573
REMARK  223  A    between atoms: _573  and  _574
REMARK  224  A    between atoms: _574  and  _575
REMARK  225  A    between atoms: _584  and  _586
REMARK  226  A    between atoms: _586  and  _587
REMARK  227  A    between atoms: _586  and  _589
REMARK  228  A    between atoms: _592  and  _594
REMARK  229  A    between atoms: _594  and  _595
REMARK  230  A    between atoms: _594  and  _597
REMARK  231  A    between atoms: _597  and  _598
REMARK  232  A    between atoms: _603  and  _604
REMARK  233  A    between atoms: _606  and  _608
REMARK  234  A    between atoms: _608  and  _609
REMARK  235  A    between atoms: _608  and  _611
REMARK  236  A    between atoms: _611  and  _612
REMARK  237  A    between atoms: _614  and  _616
REMARK  238  A    between atoms: _616  and  _617
REMARK  239  A    between atoms: _616  and  _619
REMARK  240  A    between atoms: _619  and  _620
REMARK  241  A    between atoms: _625  and  _627
REMARK  242  A    between atoms: _627  and  _628
REMARK  243  A    between atoms: _627  and  _630
REMARK  244  A    between atoms: _630  and  _631
REMARK  245  A    between atoms: _631  and  _632
REMARK  246  A    between atoms: _635  and  _637
REMARK  247  A    between atoms: _637  and  _638
REMARK  248  A    between atoms: _637  and  _640
REMARK  249  A    between atoms: _640  and  _641
REMARK  250  A    between atoms: _646  and  _647
REMARK  251  A    between atoms: _649  and  _651
REMARK  252  A    between atoms: _651  and  _652
REMARK  253  A    between atoms: _655  and  _657
REMARK  254  A    between atoms: _657  and  _658
REMARK  255  A    between atoms: _657  and  _660
REMARK  256  A    between atoms: _660  and  _661
REMARK  257  A    between atoms: _665  and  _666
REMARK  258  A    between atoms: _671  and  _673
REMARK  259  A    between atoms: _673  and  _674
REMARK  260  A    between atoms: _673  and  _676
REMARK  261  A    between atoms: _676  and  _677
REMARK  262  A    between atoms: _680  and  _682
REMARK  263  A    between atoms: _682  and  _683
REMARK  264  A    between atoms: _682  and  _685
REMARK  265  A    between atoms: _685  and  _686
REMARK  266  A    between atoms: _686  and  _687
REMARK  267  A    between atoms: _692  and  _694
REMARK  268  A    between atoms: _694  and  _695
REMARK  269  A    between atoms: _694  and  _697
REMARK  270  A    between atoms: _697  and  _698
REMARK  271  A    between atoms: _701  and  _703
REMARK  272  A    between atoms: _703  and  _704
REMARK  273  A    between atoms: _703  and  _706
REMARK  274  A    between atoms: _706  and  _707
REMARK  275  A    between atoms: _710  and  _712
REMARK  276  A    between atoms: _712  and  _713
REMARK  277  A    between atoms: _712  and  _715
REMARK  278  A    between atoms: _715  and  _716
REMARK                            x       y       z     vdW  Elec       q    Type
REMARK                         _______ _______ _______ _____ _____    ______ ____
ROOT
ATOM      1  O   HOH     1      55.934   5.823 -17.245  0.00  0.00    +0.000 OA
ENDROOT
TORSDOF 0
REMARK  Name = ../refined-set-2016/4ksy/4ksy_pocket.pdb
REMARK  278 active torsions:
REMARK  status: ('A' for Active; 'I' for Inactive)
REMARK    1  A    between atoms: _1  and  _3
REMARK    2  A    between atoms: _3  and  _4
REMARK    3  A    between atoms: _6  and  _8
REMARK    4  A    between atoms: _8  and  _9
REMARK    5  A    between atoms: _8  and  _11
REMARK    6  A    between atoms: _11  and  _12
REMARK    7  A    between atoms: _15  and  _17
REMARK    8  A    between atoms: _17  and  _18
REMARK    9  A    between atoms: _21  and  _23
REMARK   10  A    between atoms: _23  and  _24
REMARK   11  A    between atoms: _23  and  _26
REMARK   12  A    between atoms: _26  and  _27
REMARK   13  A    between atoms: _37  and  _39
REMARK   14  A    between atoms: _39  and  _40
REMARK   15  A    between atoms: _39  and  _42
REMARK   16  A    between atoms: _42  and  _43
REMARK   17  A    between atoms: _45  and  _47
REMARK   18  A    between atoms: _47  and  _48
REMARK   19  A    between atoms: _47  and  _50
REMARK   20  A    between atoms: _50  and  _51
REMARK   21  A    between atoms: _56  and  _57
REMARK   22  A    between atoms: _59  and  _61
REMARK   23  A    between atoms: _61  and  _62
REMARK   24  A    between atoms: _61  and  _64
REMARK   25  A    between atoms: _64  and  _65
REMARK   26  A    between atoms: _70  and  _71
REMARK   27  A    between atoms: _73  and  _75
REMARK   28  A    between atoms: _75  and  _76
REMARK   29  A    between atoms: _75  and  _78
REMARK   30  A    between atoms: _78  and  _79
REMARK   31  A    between atoms: _82  and  _84
REMARK   32  A    between atoms: _84  and  _85
REMARK   33  A    between atoms: _87  and  _89
REMARK   34  A    between atoms: _89  and  _90
REMARK   35  A    between atoms: _89  and  _92
REMARK   36  A    between atoms: _92  and  _93
REMARK   37  A    between atoms: _98  and  _99
REMARK   38  A    between atoms: _101  and  _103
REMARK   39  A    between atoms: _103  and  _104
REMARK   40  A    between atoms: _103  and  _106
REMARK   41  A    between atoms: _106  and  _107
REMARK   42  A    between atoms: _110  and  _112
REMARK   43  A    between atoms: _112  and  _113
REMARK   44  A    between atoms: _112  and  _115
REMARK   45  A    between atoms: _115  and  _116
REMARK   46  A    between atoms: _116  and  _117
REMARK   47  A    between atoms: _117  and  _118
REMARK   48  A    between atoms: _127  and  _129
REMARK   49  A    between atoms: _129  and  _130
REMARK   50  A    between atoms: _129  and  _132
REMARK   51  A    between atoms: _132  and  _133
REMARK   52  A    between atoms: _136  and  _138
REMARK   53  A    between atoms: _138  and  _139
REMARK   54  A    between atoms: _138  and  _141
REMARK   55  A    between atoms: _141  and  _142
REMARK   56  A    between atoms: _145  and  _147
REMARK   57  A    between atoms: _147  and  _148
REMARK   58  A    between atoms: _147  and  _150
REMARK   59  A    between atoms: _150  and  _151
REMARK   60  A    between atoms: _154  and  _156
REMARK   61  A    between atoms: _156  and  _157
REMARK   62  A    between atoms: _156  and  _159
REMARK   63  A    between atoms: _159  and  _160
REMARK   64  A    between atoms: _163  and  _165
REMARK   65  A    between atoms: _165  and  _166
REMARK   66  A    between atoms: _165  and  _168
REMARK   67  A    between atoms: _168  and  _169
REMARK   68  A    between atoms: _169  and  _170
REMARK   69  A    between atoms: _175  and  _177
REMARK   70  A    between atoms: _177  and  _178
REMARK   71  A    between atoms: _177  and  _180
REMARK   72  A    between atoms: _180  and  _181
REMARK   73  A    between atoms: _181  and  _182
REMARK   74  A    between atoms: _182  and  _183
REMARK   75  A    between atoms: _192  and  _194
REMARK   76  A    between atoms: _194  and  _195
REMARK   77  A    between atoms: _198  and  _200
REMARK   78  A    between atoms: _200  and  _201
REMARK   79  A    between atoms: _200  and  _203
REMARK   80  A    between atoms: _203  and  _204
REMARK   81  A    between atoms: _207  and  _209
REMARK   82  A    between atoms: _209  and  _210
REMARK   83  A    between atoms: _209  and  _212
REMARK   84  A    between atoms: _212  and  _213
REMARK   85  A    between atoms: _216  and  _218
REMARK   86  A    between atoms: _218  and  _219
REMARK   87  A    between atoms: _218  and  _221
REMARK   88  A    between atoms: _221  and  _222
REMARK   89  A    between atoms: _222  and  _223
REMARK   90  A    between atoms: _223  and  _224
REMARK   91  A    between atoms: _233  and  _235
REMARK   92  A    between atoms: _235  and  _236
REMARK   93  A    between atoms: _235  and  _238
REMARK   94  A    between atoms: _241  and  _243
REMARK   95  A    between atoms: _243  and  _244
REMARK   96  A    between atoms: _243  and  _246
REMARK   97  A    between atoms: _246  and  _247
REMARK   98  A    between atoms: _252  and  _253
REMARK   99  A    between atoms: _255  and  _257
REMARK  100  A    between atoms: _257  and  _258
REMARK  101  A    between atoms: _257  and  _260
REMARK  102  A    between atoms: _260  and  _261
REMARK  103  A    between atoms: _263  and  _265
REMARK  104  A    between atoms: _265  and  _266
REMARK  105  A    between atoms: _265  and  _268
REMARK  106  A    between atoms: _268  and  _269
REMARK  107  A    between atoms: _274  and  _276
REMARK  108  A    between atoms: _276  and  _277
REMARK  109  A    between atoms: _276  and  _279
REMARK  110  A    between atoms: _279  and  _280
REMARK  111  A    between atoms: _280  and  _281
REMARK  112  A    between atoms: _284  and  _286
REMARK  113  A    between atoms: _286  and  _287
REMARK  114  A    between atoms: _286  and  _289
REMARK  115  A    between atoms: _289  and  _290
REMARK  116  A    between atoms: _295  and  _296
REMARK  117  A    between atoms: _298  and  _300
REMARK  118  A    between atoms: _300  and  _301
REMARK  119  A    between atoms: _304  and  _306
REMARK  120  A    between atoms: _306  and  _307
REMARK  121  A    between atoms: _306  and  _309
REMARK  122  A    between atoms: _309  and  _310
REMARK  123  A    between atoms: _314  and  _315
REMARK  124  A    between atoms: _320  and  _322
REMARK  125  A    between atoms: _322  and  _323
REMARK  126  A    between atoms: _322  and  _325
REMARK  127  A    between atoms: _325  and  _326
REMARK  128  A    between atoms: _329  and  _331
REMARK  129  A    between atoms: _331  and  _332
REMARK  130  A    between atoms: _331  and  _334
REMARK  131  A    between atoms: _334  and  _335
REMARK  132  A    between atoms: _335  and  _336
REMARK  133  A    between atoms: _341  and  _343
REMARK  134  A    between atoms: _343  and  _344
REMARK  135  A    between atoms: _343  and  _346
REMARK  136  A    between atoms: _346  and  _347
REMARK  137  A    between atoms: _350  and  _352
REMARK  138  A    between atoms: _352  and  _353
REMARK  139  A    between atoms: _352  and  _355
REMARK  140  A    between atoms: _355  and  _356
REMARK  141  A    between atoms: _362  and  _364
REMARK  142  A    between atoms: _364  and  _365
REMARK  143  A    between atoms: _364  and  _367
REMARK  144  A    between atoms: _367  and  _368
REMARK  145  A    between atoms: _371  and  _373
REMARK  146  A    between atoms: _373  and  _374
REMARK  147  A    between atoms: _377  and  _379
REMARK  148  A    between atoms: _379  and  _380
REMARK  149  A    between atoms: _379  and  _382
REMARK  150  A    between atoms: _382  and  _383
REMARK  151  A    between atoms: _393  and  _395
REMARK  152  A    between atoms: _395  and  _396
REMARK  153  A    between atoms: _395  and  _398
REMARK  154  A    between atoms: _398  and  _399
REMARK  155  A    between atoms: _401  and  _403
REMARK  156  A    between atoms: _403  and  _404
REMARK  157  A    between atoms: _403  and  _406
REMARK  158  A    between atoms: _406  and  _407
REMARK  159  A    between atoms: _412  and  _413
REMARK  160  A    between atoms: _415  and  _417
REMARK  161  A    between atoms: _417  and  _418
REMARK  162  A    between atoms: _417  and  _420
REMARK  163  A    between atoms: _420  and  _421
REMARK  164  A    between atoms: _426  and  _427
REMARK  165  A    between atoms: _429  and  _431
REMARK  166  A    between atoms: _431  and  _432
REMARK  167  A    between atoms: _431  and  _434
REMARK  168  A    between atoms: _434  and  _435
REMARK  169  A    between atoms: _438  and  _440
REMARK  170  A    between atoms: _440  and  _441
REMARK  171  A    between atoms: _443  and  _445
REMARK  172  A    between atoms: _445  and  _446
REMARK  173  A    between atoms: _445  and  _448
REMARK  174  A    between atoms: _448  and  _449
REMARK  175  A    between atoms: _454  and  _455
REMARK  176  A    between atoms: _457  and  _459
REMARK  177  A    between atoms: _459  and  _460
REMARK  178  A    between atoms: _459  and  _462
REMARK  179  A    between atoms: _462  and  _463
REMARK  180  A    between atoms: _466  and  _468
REMARK  181  A    between atoms: _468  and  _469
REMARK  182  A    between atoms: _468  and  _471
REMARK  183  A    between atoms: _471  and  _472
REMARK  184  A    between atoms: _472  and  _473
REMARK  185  A    between atoms: _473  and  _474
REMARK  186  A    between atoms: _483  and  _485
REMARK  187  A    between atoms: _485  and  _486
REMARK  188  A    between atoms: _485  and  _488
REMARK  189  A    between atoms: _488  and  _489
REMARK  190  A    between atoms: _492  and  _494
REMARK  191  A    between atoms: _494  and  _495
REMARK  192  A    between atoms: _494  and  _497
REMARK  193  A    between atoms: _497  and  _498
REMARK  194  A    between atoms: _501  and  _503
REMARK  195  A    between atoms: _503  and  _504
REMARK  196  A    between atoms: _503  and  _506
REMARK  197  A    between atoms: _506  and  _507
REMARK  198  A    between atoms: _507  and  _508
REMARK  199  A    between atoms: _508  and  _509
REMARK  200  A    between atoms: _518  and  _520
REMARK  201  A    between atoms: _520  and  _521
REMARK  202  A    between atoms: _520  and  _523
REMARK  203  A    between atoms: _523  and  _524
REMARK  204  A    between atoms: _524  and  _525
REMARK  205  A    between atoms: _530  and  _532
REMARK  206  A    between atoms: _532  and  _533
REMARK  207  A    between atoms: _532  and  _535
REMARK  208  A    between atoms: _535  and  _536
REMARK  209  A    between atoms: _536  and  _537
REMARK  210  A    between atoms: _537  and  _538
REMARK  211  A    between atoms: _547  and  _549
REMARK  212  A    between atoms: _549  and  _550
REMARK  213  A    between atoms: _553  and  _555
REMARK  214  A    between atoms: _555  and  _556
REMARK  215  A    between atoms: _558  and  _560
REMARK  216  A    between atoms: _560  and  _561
REMARK  217  A    between atoms: _560  and  _563
REMARK  218  A    between atoms: _563  and  _564
REMARK  219  A    between atoms: _567  and  _569
REMARK  220  A    between atoms: _569  and  _570
REMARK  221  A    between atoms: _569  and  _572
REMARK  222  A    between atoms: _572  and  _573
REMARK  223  A    between atoms: _573  and  _574
REMARK  224  A    between atoms: _574  and  _575
REMARK  225  A    between atoms: _584  and  _586
REMARK  226  A    between atoms: _586  and  _587
REMARK  227  A    between atoms: _586  and  _589
REMARK  228  A    between atoms: _592  and  _594
REMARK  229  A    between atoms: _594  and  _595
REMARK  230  A    between atoms: _594  and  _597
REMARK  231  A    between atoms: _597  and  _598
REMARK  232  A    between atoms: _603  and  _604
REMARK  233  A    between atoms: _606  and  _608
REMARK  234  A    between atoms: _608  and  _609
REMARK  235  A    between atoms: _608  and  _611
REMARK  236  A    between atoms: _611  and  _612
REMARK  237  A    between atoms: _614  and  _616
REMARK  238  A    between atoms: _616  and  _617
REMARK  239  A    between atoms: _616  and  _619
REMARK  240  A    between atoms: _619  and  _620
REMARK  241  A    between atoms: _625  and  _627
REMARK  242  A    between atoms: _627  and  _628
REMARK  243  A    between atoms: _627  and  _630
REMARK  244  A    between atoms: _630  and  _631
REMARK  245  A    between atoms: _631  and  _632
REMARK  246  A    between atoms: _635  and  _637
REMARK  247  A    between atoms: _637  and  _638
REMARK  248  A    between atoms: _637  and  _640
REMARK  249  A    between atoms: _640  and  _641
REMARK  250  A    between atoms: _646  and  _647
REMARK  251  A    between atoms: _649  and  _651
REMARK  252  A    between atoms: _651  and  _652
REMARK  253  A    between atoms: _655  and  _657
REMARK  254  A    between atoms: _657  and  _658
REMARK  255  A    between atoms: _657  and  _660
REMARK  256  A    between atoms: _660  and  _661
REMARK  257  A    between atoms: _665  and  _666
REMARK  258  A    between atoms: _671  and  _673
REMARK  259  A    between atoms: _673  and  _674
REMARK  260  A    between atoms: _673  and  _676
REMARK  261  A    between atoms: _676  and  _677
REMARK  262  A    between atoms: _680  and  _682
REMARK  263  A    between atoms: _682  and  _683
REMARK  264  A    between atoms: _682  and  _685
REMARK  265  A    between atoms: _685  and  _686
REMARK  266  A    between atoms: _686  and  _687
REMARK  267  A    between atoms: _692  and  _694
REMARK  268  A    between atoms: _694  and  _695
REMARK  269  A    between atoms: _694  and  _697
REMARK  270  A    between atoms: _697  and  _698
REMARK  271  A    between atoms: _701  and  _703
REMARK  272  A    between atoms: _703  and  _704
REMARK  273  A    between atoms: _703  and  _706
REMARK  274  A    between atoms: _706  and  _707
REMARK  275  A    between atoms: _710  and  _712
REMARK  276  A    between atoms: _712  and  _713
REMARK  277  A    between atoms: _712  and  _715
REMARK  278  A    between atoms: _715  and  _716
REMARK                            x       y       z     vdW  Elec       q    Type
REMARK                         _______ _______ _______ _____ _____    ______ ____
ROOT
ATOM      1  O   HOH     1      49.443  14.161 -17.220  0.00  0.00    +0.000 OA
ENDROOT
TORSDOF 0
REMARK  Name = ../refined-set-2016/4ksy/4ksy_pocket.pdb
REMARK  278 active torsions:
REMARK  status: ('A' for Active; 'I' for Inactive)
REMARK    1  A    between atoms: _1  and  _3
REMARK    2  A    between atoms: _3  and  _4
REMARK    3  A    between atoms: _6  and  _8
REMARK    4  A    between atoms: _8  and  _9
REMARK    5  A    between atoms: _8  and  _11
REMARK    6  A    between atoms: _11  and  _12
REMARK    7  A    between atoms: _15  and  _17
REMARK    8  A    between atoms: _17  and  _18
REMARK    9  A    between atoms: _21  and  _23
REMARK   10  A    between atoms: _23  and  _24
REMARK   11  A    between atoms: _23  and  _26
REMARK   12  A    between atoms: _26  and  _27
REMARK   13  A    between atoms: _37  and  _39
REMARK   14  A    between atoms: _39  and  _40
REMARK   15  A    between atoms: _39  and  _42
REMARK   16  A    between atoms: _42  and  _43
REMARK   17  A    between atoms: _45  and  _47
REMARK   18  A    between atoms: _47  and  _48
REMARK   19  A    between atoms: _47  and  _50
REMARK   20  A    between atoms: _50  and  _51
REMARK   21  A    between atoms: _56  and  _57
REMARK   22  A    between atoms: _59  and  _61
REMARK   23  A    between atoms: _61  and  _62
REMARK   24  A    between atoms: _61  and  _64
REMARK   25  A    between atoms: _64  and  _65
REMARK   26  A    between atoms: _70  and  _71
REMARK   27  A    between atoms: _73  and  _75
REMARK   28  A    between atoms: _75  and  _76
REMARK   29  A    between atoms: _75  and  _78
REMARK   30  A    between atoms: _78  and  _79
REMARK   31  A    between atoms: _82  and  _84
REMARK   32  A    between atoms: _84  and  _85
REMARK   33  A    between atoms: _87  and  _89
REMARK   34  A    between atoms: _89  and  _90
REMARK   35  A    between atoms: _89  and  _92
REMARK   36  A    between atoms: _92  and  _93
REMARK   37  A    between atoms: _98  and  _99
REMARK   38  A    between atoms: _101  and  _103
REMARK   39  A    between atoms: _103  and  _104
REMARK   40  A    between atoms: _103  and  _106
REMARK   41  A    between atoms: _106  and  _107
REMARK   42  A    between atoms: _110  and  _112
REMARK   43  A    between atoms: _112  and  _113
REMARK   44  A    between atoms: _112  and  _115
REMARK   45  A    between atoms: _115  and  _116
REMARK   46  A    between atoms: _116  and  _117
REMARK   47  A    between atoms: _117  and  _118
REMARK   48  A    between atoms: _127  and  _129
REMARK   49  A    between atoms: _129  and  _130
REMARK   50  A    between atoms: _129  and  _132
REMARK   51  A    between atoms: _132  and  _133
REMARK   52  A    between atoms: _136  and  _138
REMARK   53  A    between atoms: _138  and  _139
REMARK   54  A    between atoms: _138  and  _141
REMARK   55  A    between atoms: _141  and  _142
REMARK   56  A    between atoms: _145  and  _147
REMARK   57  A    between atoms: _147  and  _148
REMARK   58  A    between atoms: _147  and  _150
REMARK   59  A    between atoms: _150  and  _151
REMARK   60  A    between atoms: _154  and  _156
REMARK   61  A    between atoms: _156  and  _157
REMARK   62  A    between atoms: _156  and  _159
REMARK   63  A    between atoms: _159  and  _160
REMARK   64  A    between atoms: _163  and  _165
REMARK   65  A    between atoms: _165  and  _166
REMARK   66  A    between atoms: _165  and  _168
REMARK   67  A    between atoms: _168  and  _169
REMARK   68  A    between atoms: _169  and  _170
REMARK   69  A    between atoms: _175  and  _177
REMARK   70  A    between atoms: _177  and  _178
REMARK   71  A    between atoms: _177  and  _180
REMARK   72  A    between atoms: _180  and  _181
REMARK   73  A    between atoms: _181  and  _182
REMARK   74  A    between atoms: _182  and  _183
REMARK   75  A    between atoms: _192  and  _194
REMARK   76  A    between atoms: _194  and  _195
REMARK   77  A    between atoms: _198  and  _200
REMARK   78  A    between atoms: _200  and  _201
REMARK   79  A    between atoms: _200  and  _203
REMARK   80  A    between atoms: _203  and  _204
REMARK   81  A    between atoms: _207  and  _209
REMARK   82  A    between atoms: _209  and  _210
REMARK   83  A    between atoms: _209  and  _212
REMARK   84  A    between atoms: _212  and  _213
REMARK   85  A    between atoms: _216  and  _218
REMARK   86  A    between atoms: _218  and  _219
REMARK   87  A    between atoms: _218  and  _221
REMARK   88  A    between atoms: _221  and  _222
REMARK   89  A    between atoms: _222  and  _223
REMARK   90  A    between atoms: _223  and  _224
REMARK   91  A    between atoms: _233  and  _235
REMARK   92  A    between atoms: _235  and  _236
REMARK   93  A    between atoms: _235  and  _238
REMARK   94  A    between atoms: _241  and  _243
REMARK   95  A    between atoms: _243  and  _244
REMARK   96  A    between atoms: _243  and  _246
REMARK   97  A    between atoms: _246  and  _247
REMARK   98  A    between atoms: _252  and  _253
REMARK   99  A    between atoms: _255  and  _257
REMARK  100  A    between atoms: _257  and  _258
REMARK  101  A    between atoms: _257  and  _260
REMARK  102  A    between atoms: _260  and  _261
REMARK  103  A    between atoms: _263  and  _265
REMARK  104  A    between atoms: _265  and  _266
REMARK  105  A    between atoms: _265  and  _268
REMARK  106  A    between atoms: _268  and  _269
REMARK  107  A    between atoms: _274  and  _276
REMARK  108  A    between atoms: _276  and  _277
REMARK  109  A    between atoms: _276  and  _279
REMARK  110  A    between atoms: _279  and  _280
REMARK  111  A    between atoms: _280  and  _281
REMARK  112  A    between atoms: _284  and  _286
REMARK  113  A    between atoms: _286  and  _287
REMARK  114  A    between atoms: _286  and  _289
REMARK  115  A    between atoms: _289  and  _290
REMARK  116  A    between atoms: _295  and  _296
REMARK  117  A    between atoms: _298  and  _300
REMARK  118  A    between atoms: _300  and  _301
REMARK  119  A    between atoms: _304  and  _306
REMARK  120  A    between atoms: _306  and  _307
REMARK  121  A    between atoms: _306  and  _309
REMARK  122  A    between atoms: _309  and  _310
REMARK  123  A    between atoms: _314  and  _315
REMARK  124  A    between atoms: _320  and  _322
REMARK  125  A    between atoms: _322  and  _323
REMARK  126  A    between atoms: _322  and  _325
REMARK  127  A    between atoms: _325  and  _326
REMARK  128  A    between atoms: _329  and  _331
REMARK  129  A    between atoms: _331  and  _332
REMARK  130  A    between atoms: _331  and  _334
REMARK  131  A    between atoms: _334  and  _335
REMARK  132  A    between atoms: _335  and  _336
REMARK  133  A    between atoms: _341  and  _343
REMARK  134  A    between atoms: _343  and  _344
REMARK  135  A    between atoms: _343  and  _346
REMARK  136  A    between atoms: _346  and  _347
REMARK  137  A    between atoms: _350  and  _352
REMARK  138  A    between atoms: _352  and  _353
REMARK  139  A    between atoms: _352  and  _355
REMARK  140  A    between atoms: _355  and  _356
REMARK  141  A    between atoms: _362  and  _364
REMARK  142  A    between atoms: _364  and  _365
REMARK  143  A    between atoms: _364  and  _367
REMARK  144  A    between atoms: _367  and  _368
REMARK  145  A    between atoms: _371  and  _373
REMARK  146  A    between atoms: _373  and  _374
REMARK  147  A    between atoms: _377  and  _379
REMARK  148  A    between atoms: _379  and  _380
REMARK  149  A    between atoms: _379  and  _382
REMARK  150  A    between atoms: _382  and  _383
REMARK  151  A    between atoms: _393  and  _395
REMARK  152  A    between atoms: _395  and  _396
REMARK  153  A    between atoms: _395  and  _398
REMARK  154  A    between atoms: _398  and  _399
REMARK  155  A    between atoms: _401  and  _403
REMARK  156  A    between atoms: _403  and  _404
REMARK  157  A    between atoms: _403  and  _406
REMARK  158  A    between atoms: _406  and  _407
REMARK  159  A    between atoms: _412  and  _413
REMARK  160  A    between atoms: _415  and  _417
REMARK  161  A    between atoms: _417  and  _418
REMARK  162  A    between atoms: _417  and  _420
REMARK  163  A    between atoms: _420  and  _421
REMARK  164  A    between atoms: _426  and  _427
REMARK  165  A    between atoms: _429  and  _431
REMARK  166  A    between atoms: _431  and  _432
REMARK  167  A    between atoms: _431  and  _434
REMARK  168  A    between atoms: _434  and  _435
REMARK  169  A    between atoms: _438  and  _440
REMARK  170  A    between atoms: _440  and  _441
REMARK  171  A    between atoms: _443  and  _445
REMARK  172  A    between atoms: _445  and  _446
REMARK  173  A    between atoms: _445  and  _448
REMARK  174  A    between atoms: _448  and  _449
REMARK  175  A    between atoms: _454  and  _455
REMARK  176  A    between atoms: _457  and  _459
REMARK  177  A    between atoms: _459  and  _460
REMARK  178  A    between atoms: _459  and  _462
REMARK  179  A    between atoms: _462  and  _463
REMARK  180  A    between atoms: _466  and  _468
REMARK  181  A    between atoms: _468  and  _469
REMARK  182  A    between atoms: _468  and  _471
REMARK  183  A    between atoms: _471  and  _472
REMARK  184  A    between atoms: _472  and  _473
REMARK  185  A    between atoms: _473  and  _474
REMARK  186  A    between atoms: _483  and  _485
REMARK  187  A    between atoms: _485  and  _486
REMARK  188  A    between atoms: _485  and  _488
REMARK  189  A    between atoms: _488  and  _489
REMARK  190  A    between atoms: _492  and  _494
REMARK  191  A    between atoms: _494  and  _495
REMARK  192  A    between atoms: _494  and  _497
REMARK  193  A    between atoms: _497  and  _498
REMARK  194  A    between atoms: _501  and  _503
REMARK  195  A    between atoms: _503  and  _504
REMARK  196  A    between atoms: _503  and  _506
REMARK  197  A    between atoms: _506  and  _507
REMARK  198  A    between atoms: _507  and  _508
REMARK  199  A    between atoms: _508  and  _509
REMARK  200  A    between atoms: _518  and  _520
REMARK  201  A    between atoms: _520  and  _521
REMARK  202  A    between atoms: _520  and  _523
REMARK  203  A    between atoms: _523  and  _524
REMARK  204  A    between atoms: _524  and  _525
REMARK  205  A    between atoms: _530  and  _532
REMARK  206  A    between atoms: _532  and  _533
REMARK  207  A    between atoms: _532  and  _535
REMARK  208  A    between atoms: _535  and  _536
REMARK  209  A    between atoms: _536  and  _537
REMARK  210  A    between atoms: _537  and  _538
REMARK  211  A    between atoms: _547  and  _549
REMARK  212  A    between atoms: _549  and  _550
REMARK  213  A    between atoms: _553  and  _555
REMARK  214  A    between atoms: _555  and  _556
REMARK  215  A    between atoms: _558  and  _560
REMARK  216  A    between atoms: _560  and  _561
REMARK  217  A    between atoms: _560  and  _563
REMARK  218  A    between atoms: _563  and  _564
REMARK  219  A    between atoms: _567  and  _569
REMARK  220  A    between atoms: _569  and  _570
REMARK  221  A    between atoms: _569  and  _572
REMARK  222  A    between atoms: _572  and  _573
REMARK  223  A    between atoms: _573  and  _574
REMARK  224  A    between atoms: _574  and  _575
REMARK  225  A    between atoms: _584  and  _586
REMARK  226  A    between atoms: _586  and  _587
REMARK  227  A    between atoms: _586  and  _589
REMARK  228  A    between atoms: _592  and  _594
REMARK  229  A    between atoms: _594  and  _595
REMARK  230  A    between atoms: _594  and  _597
REMARK  231  A    between atoms: _597  and  _598
REMARK  232  A    between atoms: _603  and  _604
REMARK  233  A    between atoms: _606  and  _608
REMARK  234  A    between atoms: _608  and  _609
REMARK  235  A    between atoms: _608  and  _611
REMARK  236  A    between atoms: _611  and  _612
REMARK  237  A    between atoms: _614  and  _616
REMARK  238  A    between atoms: _616  and  _617
REMARK  239  A    between atoms: _616  and  _619
REMARK  240  A    between atoms: _619  and  _620
REMARK  241  A    between atoms: _625  and  _627
REMARK  242  A    between atoms: _627  and  _628
REMARK  243  A    between atoms: _627  and  _630
REMARK  244  A    between atoms: _630  and  _631
REMARK  245  A    between atoms: _631  and  _632
REMARK  246  A    between atoms: _635  and  _637
REMARK  247  A    between atoms: _637  and  _638
REMARK  248  A    between atoms: _637  and  _640
REMARK  249  A    between atoms: _640  and  _641
REMARK  250  A    between atoms: _646  and  _647
REMARK  251  A    between atoms: _649  and  _651
REMARK  252  A    between atoms: _651  and  _652
REMARK  253  A    between atoms: _655  and  _657
REMARK  254  A    between atoms: _657  and  _658
REMARK  255  A    between atoms: _657  and  _660
REMARK  256  A    between atoms: _660  and  _661
REMARK  257  A    between atoms: _665  and  _666
REMARK  258  A    between atoms: _671  and  _673
REMARK  259  A    between atoms: _673  and  _674
REMARK  260  A    between atoms: _673  and  _676
REMARK  261  A    between atoms: _676  and  _677
REMARK  262  A    between atoms: _680  and  _682
REMARK  263  A    between atoms: _682  and  _683
REMARK  264  A    between atoms: _682  and  _685
REMARK  265  A    between atoms: _685  and  _686
REMARK  266  A    between atoms: _686  and  _687
REMARK  267  A    between atoms: _692  and  _694
REMARK  268  A    between atoms: _694  and  _695
REMARK  269  A    between atoms: _694  and  _697
REMARK  270  A    between atoms: _697  and  _698
REMARK  271  A    between atoms: _701  and  _703
REMARK  272  A    between atoms: _703  and  _704
REMARK  273  A    between atoms: _703  and  _706
REMARK  274  A    between atoms: _706  and  _707
REMARK  275  A    between atoms: _710  and  _712
REMARK  276  A    between atoms: _712  and  _713
REMARK  277  A    between atoms: _712  and  _715
REMARK  278  A    between atoms: _715  and  _716
REMARK                            x       y       z     vdW  Elec       q    Type
REMARK                         _______ _______ _______ _____ _____    ______ ____
ROOT
ATOM      1  O   HOH     1      41.196   8.459 -22.066  0.00  0.00    +0.000 OA
ENDROOT
TORSDOF 0
REMARK  Name = ../refined-set-2016/4ksy/4ksy_pocket.pdb
REMARK  278 active torsions:
REMARK  status: ('A' for Active; 'I' for Inactive)
REMARK    1  A    between atoms: _1  and  _3
REMARK    2  A    between atoms: _3  and  _4
REMARK    3  A    between atoms: _6  and  _8
REMARK    4  A    between atoms: _8  and  _9
REMARK    5  A    between atoms: _8  and  _11
REMARK    6  A    between atoms: _11  and  _12
REMARK    7  A    between atoms: _15  and  _17
REMARK    8  A    between atoms: _17  and  _18
REMARK    9  A    between atoms: _21  and  _23
REMARK   10  A    between atoms: _23  and  _24
REMARK   11  A    between atoms: _23  and  _26
REMARK   12  A    between atoms: _26  and  _27
REMARK   13  A    between atoms: _37  and  _39
REMARK   14  A    between atoms: _39  and  _40
REMARK   15  A    between atoms: _39  and  _42
REMARK   16  A    between atoms: _42  and  _43
REMARK   17  A    between atoms: _45  and  _47
REMARK   18  A    between atoms: _47  and  _48
REMARK   19  A    between atoms: _47  and  _50
REMARK   20  A    between atoms: _50  and  _51
REMARK   21  A    between atoms: _56  and  _57
REMARK   22  A    between atoms: _59  and  _61
REMARK   23  A    between atoms: _61  and  _62
REMARK   24  A    between atoms: _61  and  _64
REMARK   25  A    between atoms: _64  and  _65
REMARK   26  A    between atoms: _70  and  _71
REMARK   27  A    between atoms: _73  and  _75
REMARK   28  A    between atoms: _75  and  _76
REMARK   29  A    between atoms: _75  and  _78
REMARK   30  A    between atoms: _78  and  _79
REMARK   31  A    between atoms: _82  and  _84
REMARK   32  A    between atoms: _84  and  _85
REMARK   33  A    between atoms: _87  and  _89
REMARK   34  A    between atoms: _89  and  _90
REMARK   35  A    between atoms: _89  and  _92
REMARK   36  A    between atoms: _92  and  _93
REMARK   37  A    between atoms: _98  and  _99
REMARK   38  A    between atoms: _101  and  _103
REMARK   39  A    between atoms: _103  and  _104
REMARK   40  A    between atoms: _103  and  _106
REMARK   41  A    between atoms: _106  and  _107
REMARK   42  A    between atoms: _110  and  _112
REMARK   43  A    between atoms: _112  and  _113
REMARK   44  A    between atoms: _112  and  _115
REMARK   45  A    between atoms: _115  and  _116
REMARK   46  A    between atoms: _116  and  _117
REMARK   47  A    between atoms: _117  and  _118
REMARK   48  A    between atoms: _127  and  _129
REMARK   49  A    between atoms: _129  and  _130
REMARK   50  A    between atoms: _129  and  _132
REMARK   51  A    between atoms: _132  and  _133
REMARK   52  A    between atoms: _136  and  _138
REMARK   53  A    between atoms: _138  and  _139
REMARK   54  A    between atoms: _138  and  _141
REMARK   55  A    between atoms: _141  and  _142
REMARK   56  A    between atoms: _145  and  _147
REMARK   57  A    between atoms: _147  and  _148
REMARK   58  A    between atoms: _147  and  _150
REMARK   59  A    between atoms: _150  and  _151
REMARK   60  A    between atoms: _154  and  _156
REMARK   61  A    between atoms: _156  and  _157
REMARK   62  A    between atoms: _156  and  _159
REMARK   63  A    between atoms: _159  and  _160
REMARK   64  A    between atoms: _163  and  _165
REMARK   65  A    between atoms: _165  and  _166
REMARK   66  A    between atoms: _165  and  _168
REMARK   67  A    between atoms: _168  and  _169
REMARK   68  A    between atoms: _169  and  _170
REMARK   69  A    between atoms: _175  and  _177
REMARK   70  A    between atoms: _177  and  _178
REMARK   71  A    between atoms: _177  and  _180
REMARK   72  A    between atoms: _180  and  _181
REMARK   73  A    between atoms: _181  and  _182
REMARK   74  A    between atoms: _182  and  _183
REMARK   75  A    between atoms: _192  and  _194
REMARK   76  A    between atoms: _194  and  _195
REMARK   77  A    between atoms: _198  and  _200
REMARK   78  A    between atoms: _200  and  _201
REMARK   79  A    between atoms: _200  and  _203
REMARK   80  A    between atoms: _203  and  _204
REMARK   81  A    between atoms: _207  and  _209
REMARK   82  A    between atoms: _209  and  _210
REMARK   83  A    between atoms: _209  and  _212
REMARK   84  A    between atoms: _212  and  _213
REMARK   85  A    between atoms: _216  and  _218
REMARK   86  A    between atoms: _218  and  _219
REMARK   87  A    between atoms: _218  and  _221
REMARK   88  A    between atoms: _221  and  _222
REMARK   89  A    between atoms: _222  and  _223
REMARK   90  A    between atoms: _223  and  _224
REMARK   91  A    between atoms: _233  and  _235
REMARK   92  A    between atoms: _235  and  _236
REMARK   93  A    between atoms: _235  and  _238
REMARK   94  A    between atoms: _241  and  _243
REMARK   95  A    between atoms: _243  and  _244
REMARK   96  A    between atoms: _243  and  _246
REMARK   97  A    between atoms: _246  and  _247
REMARK   98  A    between atoms: _252  and  _253
REMARK   99  A    between atoms: _255  and  _257
REMARK  100  A    between atoms: _257  and  _258
REMARK  101  A    between atoms: _257  and  _260
REMARK  102  A    between atoms: _260  and  _261
REMARK  103  A    between atoms: _263  and  _265
REMARK  104  A    between atoms: _265  and  _266
REMARK  105  A    between atoms: _265  and  _268
REMARK  106  A    between atoms: _268  and  _269
REMARK  107  A    between atoms: _274  and  _276
REMARK  108  A    between atoms: _276  and  _277
REMARK  109  A    between atoms: _276  and  _279
REMARK  110  A    between atoms: _279  and  _280
REMARK  111  A    between atoms: _280  and  _281
REMARK  112  A    between atoms: _284  and  _286
REMARK  113  A    between atoms: _286  and  _287
REMARK  114  A    between atoms: _286  and  _289
REMARK  115  A    between atoms: _289  and  _290
REMARK  116  A    between atoms: _295  and  _296
REMARK  117  A    between atoms: _298  and  _300
REMARK  118  A    between atoms: _300  and  _301
REMARK  119  A    between atoms: _304  and  _306
REMARK  120  A    between atoms: _306  and  _307
REMARK  121  A    between atoms: _306  and  _309
REMARK  122  A    between atoms: _309  and  _310
REMARK  123  A    between atoms: _314  and  _315
REMARK  124  A    between atoms: _320  and  _322
REMARK  125  A    between atoms: _322  and  _323
REMARK  126  A    between atoms: _322  and  _325
REMARK  127  A    between atoms: _325  and  _326
REMARK  128  A    between atoms: _329  and  _331
REMARK  129  A    between atoms: _331  and  _332
REMARK  130  A    between atoms: _331  and  _334
REMARK  131  A    between atoms: _334  and  _335
REMARK  132  A    between atoms: _335  and  _336
REMARK  133  A    between atoms: _341  and  _343
REMARK  134  A    between atoms: _343  and  _344
REMARK  135  A    between atoms: _343  and  _346
REMARK  136  A    between atoms: _346  and  _347
REMARK  137  A    between atoms: _350  and  _352
REMARK  138  A    between atoms: _352  and  _353
REMARK  139  A    between atoms: _352  and  _355
REMARK  140  A    between atoms: _355  and  _356
REMARK  141  A    between atoms: _362  and  _364
REMARK  142  A    between atoms: _364  and  _365
REMARK  143  A    between atoms: _364  and  _367
REMARK  144  A    between atoms: _367  and  _368
REMARK  145  A    between atoms: _371  and  _373
REMARK  146  A    between atoms: _373  and  _374
REMARK  147  A    between atoms: _377  and  _379
REMARK  148  A    between atoms: _379  and  _380
REMARK  149  A    between atoms: _379  and  _382
REMARK  150  A    between atoms: _382  and  _383
REMARK  151  A    between atoms: _393  and  _395
REMARK  152  A    between atoms: _395  and  _396
REMARK  153  A    between atoms: _395  and  _398
REMARK  154  A    between atoms: _398  and  _399
REMARK  155  A    between atoms: _401  and  _403
REMARK  156  A    between atoms: _403  and  _404
REMARK  157  A    between atoms: _403  and  _406
REMARK  158  A    between atoms: _406  and  _407
REMARK  159  A    between atoms: _412  and  _413
REMARK  160  A    between atoms: _415  and  _417
REMARK  161  A    between atoms: _417  and  _418
REMARK  162  A    between atoms: _417  and  _420
REMARK  163  A    between atoms: _420  and  _421
REMARK  164  A    between atoms: _426  and  _427
REMARK  165  A    between atoms: _429  and  _431
REMARK  166  A    between atoms: _431  and  _432
REMARK  167  A    between atoms: _431  and  _434
REMARK  168  A    between atoms: _434  and  _435
REMARK  169  A    between atoms: _438  and  _440
REMARK  170  A    between atoms: _440  and  _441
REMARK  171  A    between atoms: _443  and  _445
REMARK  172  A    between atoms: _445  and  _446
REMARK  173  A    between atoms: _445  and  _448
REMARK  174  A    between atoms: _448  and  _449
REMARK  175  A    between atoms: _454  and  _455
REMARK  176  A    between atoms: _457  and  _459
REMARK  177  A    between atoms: _459  and  _460
REMARK  178  A    between atoms: _459  and  _462
REMARK  179  A    between atoms: _462  and  _463
REMARK  180  A    between atoms: _466  and  _468
REMARK  181  A    between atoms: _468  and  _469
REMARK  182  A    between atoms: _468  and  _471
REMARK  183  A    between atoms: _471  and  _472
REMARK  184  A    between atoms: _472  and  _473
REMARK  185  A    between atoms: _473  and  _474
REMARK  186  A    between atoms: _483  and  _485
REMARK  187  A    between atoms: _485  and  _486
REMARK  188  A    between atoms: _485  and  _488
REMARK  189  A    between atoms: _488  and  _489
REMARK  190  A    between atoms: _492  and  _494
REMARK  191  A    between atoms: _494  and  _495
REMARK  192  A    between atoms: _494  and  _497
REMARK  193  A    between atoms: _497  and  _498
REMARK  194  A    between atoms: _501  and  _503
REMARK  195  A    between atoms: _503  and  _504
REMARK  196  A    between atoms: _503  and  _506
REMARK  197  A    between atoms: _506  and  _507
REMARK  198  A    between atoms: _507  and  _508
REMARK  199  A    between atoms: _508  and  _509
REMARK  200  A    between atoms: _518  and  _520
REMARK  201  A    between atoms: _520  and  _521
REMARK  202  A    between atoms: _520  and  _523
REMARK  203  A    between atoms: _523  and  _524
REMARK  204  A    between atoms: _524  and  _525
REMARK  205  A    between atoms: _530  and  _532
REMARK  206  A    between atoms: _532  and  _533
REMARK  207  A    between atoms: _532  and  _535
REMARK  208  A    between atoms: _535  and  _536
REMARK  209  A    between atoms: _536  and  _537
REMARK  210  A    between atoms: _537  and  _538
REMARK  211  A    between atoms: _547  and  _549
REMARK  212  A    between atoms: _549  and  _550
REMARK  213  A    between atoms: _553  and  _555
REMARK  214  A    between atoms: _555  and  _556
REMARK  215  A    between atoms: _558  and  _560
REMARK  216  A    between atoms: _560  and  _561
REMARK  217  A    between atoms: _560  and  _563
REMARK  218  A    between atoms: _563  and  _564
REMARK  219  A    between atoms: _567  and  _569
REMARK  220  A    between atoms: _569  and  _570
REMARK  221  A    between atoms: _569  and  _572
REMARK  222  A    between atoms: _572  and  _573
REMARK  223  A    between atoms: _573  and  _574
REMARK  224  A    between atoms: _574  and  _575
REMARK  225  A    between atoms: _584  and  _586
REMARK  226  A    between atoms: _586  and  _587
REMARK  227  A    between atoms: _586  and  _589
REMARK  228  A    between atoms: _592  and  _594
REMARK  229  A    between atoms: _594  and  _595
REMARK  230  A    between atoms: _594  and  _597
REMARK  231  A    between atoms: _597  and  _598
REMARK  232  A    between atoms: _603  and  _604
REMARK  233  A    between atoms: _606  and  _608
REMARK  234  A    between atoms: _608  and  _609
REMARK  235  A    between atoms: _608  and  _611
REMARK  236  A    between atoms: _611  and  _612
REMARK  237  A    between atoms: _614  and  _616
REMARK  238  A    between atoms: _616  and  _617
REMARK  239  A    between atoms: _616  and  _619
REMARK  240  A    between atoms: _619  and  _620
REMARK  241  A    between atoms: _625  and  _627
REMARK  242  A    between atoms: _627  and  _628
REMARK  243  A    between atoms: _627  and  _630
REMARK  244  A    between atoms: _630  and  _631
REMARK  245  A    between atoms: _631  and  _632
REMARK  246  A    between atoms: _635  and  _637
REMARK  247  A    between atoms: _637  and  _638
REMARK  248  A    between atoms: _637  and  _640
REMARK  249  A    between atoms: _640  and  _641
REMARK  250  A    between atoms: _646  and  _647
REMARK  251  A    between atoms: _649  and  _651
REMARK  252  A    between atoms: _651  and  _652
REMARK  253  A    between atoms: _655  and  _657
REMARK  254  A    between atoms: _657  and  _658
REMARK  255  A    between atoms: _657  and  _660
REMARK  256  A    between atoms: _660  and  _661
REMARK  257  A    between atoms: _665  and  _666
REMARK  258  A    between atoms: _671  and  _673
REMARK  259  A    between atoms: _673  and  _674
REMARK  260  A    between atoms: _673  and  _676
REMARK  261  A    between atoms: _676  and  _677
REMARK  262  A    between atoms: _680  and  _682
REMARK  263  A    between atoms: _682  and  _683
REMARK  264  A    between atoms: _682  and  _685
REMARK  265  A    between atoms: _685  and  _686
REMARK  266  A    between atoms: _686  and  _687
REMARK  267  A    between atoms: _692  and  _694
REMARK  268  A    between atoms: _694  and  _695
REMARK  269  A    between atoms: _694  and  _697
REMARK  270  A    between atoms: _697  and  _698
REMARK  271  A    between atoms: _701  and  _703
REMARK  272  A    between atoms: _703  and  _704
REMARK  273  A    between atoms: _703  and  _706
REMARK  274  A    between atoms: _706  and  _707
REMARK  275  A    between atoms: _710  and  _712
REMARK  276  A    between atoms: _712  and  _713
REMARK  277  A    between atoms: _712  and  _715
REMARK  278  A    between atoms: _715  and  _716
REMARK                            x       y       z     vdW  Elec       q    Type
REMARK                         _______ _______ _______ _____ _____    ______ ____
ROOT
ATOM      1  O   HOH     1      46.871  11.014 -16.445  0.00  0.00    +0.000 OA
ENDROOT
TORSDOF 0
REMARK  Name = ../refined-set-2016/4ksy/4ksy_pocket.pdb
REMARK  278 active torsions:
REMARK  status: ('A' for Active; 'I' for Inactive)
REMARK    1  A    between atoms: _1  and  _3
REMARK    2  A    between atoms: _3  and  _4
REMARK    3  A    between atoms: _6  and  _8
REMARK    4  A    between atoms: _8  and  _9
REMARK    5  A    between atoms: _8  and  _11
REMARK    6  A    between atoms: _11  and  _12
REMARK    7  A    between atoms: _15  and  _17
REMARK    8  A    between atoms: _17  and  _18
REMARK    9  A    between atoms: _21  and  _23
REMARK   10  A    between atoms: _23  and  _24
REMARK   11  A    between atoms: _23  and  _26
REMARK   12  A    between atoms: _26  and  _27
REMARK   13  A    between atoms: _37  and  _39
REMARK   14  A    between atoms: _39  and  _40
REMARK   15  A    between atoms: _39  and  _42
REMARK   16  A    between atoms: _42  and  _43
REMARK   17  A    between atoms: _45  and  _47
REMARK   18  A    between atoms: _47  and  _48
REMARK   19  A    between atoms: _47  and  _50
REMARK   20  A    between atoms: _50  and  _51
REMARK   21  A    between atoms: _56  and  _57
REMARK   22  A    between atoms: _59  and  _61
REMARK   23  A    between atoms: _61  and  _62
REMARK   24  A    between atoms: _61  and  _64
REMARK   25  A    between atoms: _64  and  _65
REMARK   26  A    between atoms: _70  and  _71
REMARK   27  A    between atoms: _73  and  _75
REMARK   28  A    between atoms: _75  and  _76
REMARK   29  A    between atoms: _75  and  _78
REMARK   30  A    between atoms: _78  and  _79
REMARK   31  A    between atoms: _82  and  _84
REMARK   32  A    between atoms: _84  and  _85
REMARK   33  A    between atoms: _87  and  _89
REMARK   34  A    between atoms: _89  and  _90
REMARK   35  A    between atoms: _89  and  _92
REMARK   36  A    between atoms: _92  and  _93
REMARK   37  A    between atoms: _98  and  _99
REMARK   38  A    between atoms: _101  and  _103
REMARK   39  A    between atoms: _103  and  _104
REMARK   40  A    between atoms: _103  and  _106
REMARK   41  A    between atoms: _106  and  _107
REMARK   42  A    between atoms: _110  and  _112
REMARK   43  A    between atoms: _112  and  _113
REMARK   44  A    between atoms: _112  and  _115
REMARK   45  A    between atoms: _115  and  _116
REMARK   46  A    between atoms: _116  and  _117
REMARK   47  A    between atoms: _117  and  _118
REMARK   48  A    between atoms: _127  and  _129
REMARK   49  A    between atoms: _129  and  _130
REMARK   50  A    between atoms: _129  and  _132
REMARK   51  A    between atoms: _132  and  _133
REMARK   52  A    between atoms: _136  and  _138
REMARK   53  A    between atoms: _138  and  _139
REMARK   54  A    between atoms: _138  and  _141
REMARK   55  A    between atoms: _141  and  _142
REMARK   56  A    between atoms: _145  and  _147
REMARK   57  A    between atoms: _147  and  _148
REMARK   58  A    between atoms: _147  and  _150
REMARK   59  A    between atoms: _150  and  _151
REMARK   60  A    between atoms: _154  and  _156
REMARK   61  A    between atoms: _156  and  _157
REMARK   62  A    between atoms: _156  and  _159
REMARK   63  A    between atoms: _159  and  _160
REMARK   64  A    between atoms: _163  and  _165
REMARK   65  A    between atoms: _165  and  _166
REMARK   66  A    between atoms: _165  and  _168
REMARK   67  A    between atoms: _168  and  _169
REMARK   68  A    between atoms: _169  and  _170
REMARK   69  A    between atoms: _175  and  _177
REMARK   70  A    between atoms: _177  and  _178
REMARK   71  A    between atoms: _177  and  _180
REMARK   72  A    between atoms: _180  and  _181
REMARK   73  A    between atoms: _181  and  _182
REMARK   74  A    between atoms: _182  and  _183
REMARK   75  A    between atoms: _192  and  _194
REMARK   76  A    between atoms: _194  and  _195
REMARK   77  A    between atoms: _198  and  _200
REMARK   78  A    between atoms: _200  and  _201
REMARK   79  A    between atoms: _200  and  _203
REMARK   80  A    between atoms: _203  and  _204
REMARK   81  A    between atoms: _207  and  _209
REMARK   82  A    between atoms: _209  and  _210
REMARK   83  A    between atoms: _209  and  _212
REMARK   84  A    between atoms: _212  and  _213
REMARK   85  A    between atoms: _216  and  _218
REMARK   86  A    between atoms: _218  and  _219
REMARK   87  A    between atoms: _218  and  _221
REMARK   88  A    between atoms: _221  and  _222
REMARK   89  A    between atoms: _222  and  _223
REMARK   90  A    between atoms: _223  and  _224
REMARK   91  A    between atoms: _233  and  _235
REMARK   92  A    between atoms: _235  and  _236
REMARK   93  A    between atoms: _235  and  _238
REMARK   94  A    between atoms: _241  and  _243
REMARK   95  A    between atoms: _243  and  _244
REMARK   96  A    between atoms: _243  and  _246
REMARK   97  A    between atoms: _246  and  _247
REMARK   98  A    between atoms: _252  and  _253
REMARK   99  A    between atoms: _255  and  _257
REMARK  100  A    between atoms: _257  and  _258
REMARK  101  A    between atoms: _257  and  _260
REMARK  102  A    between atoms: _260  and  _261
REMARK  103  A    between atoms: _263  and  _265
REMARK  104  A    between atoms: _265  and  _266
REMARK  105  A    between atoms: _265  and  _268
REMARK  106  A    between atoms: _268  and  _269
REMARK  107  A    between atoms: _274  and  _276
REMARK  108  A    between atoms: _276  and  _277
REMARK  109  A    between atoms: _276  and  _279
REMARK  110  A    between atoms: _279  and  _280
REMARK  111  A    between atoms: _280  and  _281
REMARK  112  A    between atoms: _284  and  _286
REMARK  113  A    between atoms: _286  and  _287
REMARK  114  A    between atoms: _286  and  _289
REMARK  115  A    between atoms: _289  and  _290
REMARK  116  A    between atoms: _295  and  _296
REMARK  117  A    between atoms: _298  and  _300
REMARK  118  A    between atoms: _300  and  _301
REMARK  119  A    between atoms: _304  and  _306
REMARK  120  A    between atoms: _306  and  _307
REMARK  121  A    between atoms: _306  and  _309
REMARK  122  A    between atoms: _309  and  _310
REMARK  123  A    between atoms: _314  and  _315
REMARK  124  A    between atoms: _320  and  _322
REMARK  125  A    between atoms: _322  and  _323
REMARK  126  A    between atoms: _322  and  _325
REMARK  127  A    between atoms: _325  and  _326
REMARK  128  A    between atoms: _329  and  _331
REMARK  129  A    between atoms: _331  and  _332
REMARK  130  A    between atoms: _331  and  _334
REMARK  131  A    between atoms: _334  and  _335
REMARK  132  A    between atoms: _335  and  _336
REMARK  133  A    between atoms: _341  and  _343
REMARK  134  A    between atoms: _343  and  _344
REMARK  135  A    between atoms: _343  and  _346
REMARK  136  A    between atoms: _346  and  _347
REMARK  137  A    between atoms: _350  and  _352
REMARK  138  A    between atoms: _352  and  _353
REMARK  139  A    between atoms: _352  and  _355
REMARK  140  A    between atoms: _355  and  _356
REMARK  141  A    between atoms: _362  and  _364
REMARK  142  A    between atoms: _364  and  _365
REMARK  143  A    between atoms: _364  and  _367
REMARK  144  A    between atoms: _367  and  _368
REMARK  145  A    between atoms: _371  and  _373
REMARK  146  A    between atoms: _373  and  _374
REMARK  147  A    between atoms: _377  and  _379
REMARK  148  A    between atoms: _379  and  _380
REMARK  149  A    between atoms: _379  and  _382
REMARK  150  A    between atoms: _382  and  _383
REMARK  151  A    between atoms: _393  and  _395
REMARK  152  A    between atoms: _395  and  _396
REMARK  153  A    between atoms: _395  and  _398
REMARK  154  A    between atoms: _398  and  _399
REMARK  155  A    between atoms: _401  and  _403
REMARK  156  A    between atoms: _403  and  _404
REMARK  157  A    between atoms: _403  and  _406
REMARK  158  A    between atoms: _406  and  _407
REMARK  159  A    between atoms: _412  and  _413
REMARK  160  A    between atoms: _415  and  _417
REMARK  161  A    between atoms: _417  and  _418
REMARK  162  A    between atoms: _417  and  _420
REMARK  163  A    between atoms: _420  and  _421
REMARK  164  A    between atoms: _426  and  _427
REMARK  165  A    between atoms: _429  and  _431
REMARK  166  A    between atoms: _431  and  _432
REMARK  167  A    between atoms: _431  and  _434
REMARK  168  A    between atoms: _434  and  _435
REMARK  169  A    between atoms: _438  and  _440
REMARK  170  A    between atoms: _440  and  _441
REMARK  171  A    between atoms: _443  and  _445
REMARK  172  A    between atoms: _445  and  _446
REMARK  173  A    between atoms: _445  and  _448
REMARK  174  A    between atoms: _448  and  _449
REMARK  175  A    between atoms: _454  and  _455
REMARK  176  A    between atoms: _457  and  _459
REMARK  177  A    between atoms: _459  and  _460
REMARK  178  A    between atoms: _459  and  _462
REMARK  179  A    between atoms: _462  and  _463
REMARK  180  A    between atoms: _466  and  _468
REMARK  181  A    between atoms: _468  and  _469
REMARK  182  A    between atoms: _468  and  _471
REMARK  183  A    between atoms: _471  and  _472
REMARK  184  A    between atoms: _472  and  _473
REMARK  185  A    between atoms: _473  and  _474
REMARK  186  A    between atoms: _483  and  _485
REMARK  187  A    between atoms: _485  and  _486
REMARK  188  A    between atoms: _485  and  _488
REMARK  189  A    between atoms: _488  and  _489
REMARK  190  A    between atoms: _492  and  _494
REMARK  191  A    between atoms: _494  and  _495
REMARK  192  A    between atoms: _494  and  _497
REMARK  193  A    between atoms: _497  and  _498
REMARK  194  A    between atoms: _501  and  _503
REMARK  195  A    between atoms: _503  and  _504
REMARK  196  A    between atoms: _503  and  _506
REMARK  197  A    between atoms: _506  and  _507
REMARK  198  A    between atoms: _507  and  _508
REMARK  199  A    between atoms: _508  and  _509
REMARK  200  A    between atoms: _518  and  _520
REMARK  201  A    between atoms: _520  and  _521
REMARK  202  A    between atoms: _520  and  _523
REMARK  203  A    between atoms: _523  and  _524
REMARK  204  A    between atoms: _524  and  _525
REMARK  205  A    between atoms: _530  and  _532
REMARK  206  A    between atoms: _532  and  _533
REMARK  207  A    between atoms: _532  and  _535
REMARK  208  A    between atoms: _535  and  _536
REMARK  209  A    between atoms: _536  and  _537
REMARK  210  A    between atoms: _537  and  _538
REMARK  211  A    between atoms: _547  and  _549
REMARK  212  A    between atoms: _549  and  _550
REMARK  213  A    between atoms: _553  and  _555
REMARK  214  A    between atoms: _555  and  _556
REMARK  215  A    between atoms: _558  and  _560
REMARK  216  A    between atoms: _560  and  _561
REMARK  217  A    between atoms: _560  and  _563
REMARK  218  A    between atoms: _563  and  _564
REMARK  219  A    between atoms: _567  and  _569
REMARK  220  A    between atoms: _569  and  _570
REMARK  221  A    between atoms: _569  and  _572
REMARK  222  A    between atoms: _572  and  _573
REMARK  223  A    between atoms: _573  and  _574
REMARK  224  A    between atoms: _574  and  _575
REMARK  225  A    between atoms: _584  and  _586
REMARK  226  A    between atoms: _586  and  _587
REMARK  227  A    between atoms: _586  and  _589
REMARK  228  A    between atoms: _592  and  _594
REMARK  229  A    between atoms: _594  and  _595
REMARK  230  A    between atoms: _594  and  _597
REMARK  231  A    between atoms: _597  and  _598
REMARK  232  A    between atoms: _603  and  _604
REMARK  233  A    between atoms: _606  and  _608
REMARK  234  A    between atoms: _608  and  _609
REMARK  235  A    between atoms: _608  and  _611
REMARK  236  A    between atoms: _611  and  _612
REMARK  237  A    between atoms: _614  and  _616
REMARK  238  A    between atoms: _616  and  _617
REMARK  239  A    between atoms: _616  and  _619
REMARK  240  A    between atoms: _619  and  _620
REMARK  241  A    between atoms: _625  and  _627
REMARK  242  A    between atoms: _627  and  _628
REMARK  243  A    between atoms: _627  and  _630
REMARK  244  A    between atoms: _630  and  _631
REMARK  245  A    between atoms: _631  and  _632
REMARK  246  A    between atoms: _635  and  _637
REMARK  247  A    between atoms: _637  and  _638
REMARK  248  A    between atoms: _637  and  _640
REMARK  249  A    between atoms: _640  and  _641
REMARK  250  A    between atoms: _646  and  _647
REMARK  251  A    between atoms: _649  and  _651
REMARK  252  A    between atoms: _651  and  _652
REMARK  253  A    between atoms: _655  and  _657
REMARK  254  A    between atoms: _657  and  _658
REMARK  255  A    between atoms: _657  and  _660
REMARK  256  A    between atoms: _660  and  _661
REMARK  257  A    between atoms: _665  and  _666
REMARK  258  A    between atoms: _671  and  _673
REMARK  259  A    between atoms: _673  and  _674
REMARK  260  A    between atoms: _673  and  _676
REMARK  261  A    between atoms: _676  and  _677
REMARK  262  A    between atoms: _680  and  _682
REMARK  263  A    between atoms: _682  and  _683
REMARK  264  A    between atoms: _682  and  _685
REMARK  265  A    between atoms: _685  and  _686
REMARK  266  A    between atoms: _686  and  _687
REMARK  267  A    between atoms: _692  and  _694
REMARK  268  A    between atoms: _694  and  _695
REMARK  269  A    between atoms: _694  and  _697
REMARK  270  A    between atoms: _697  and  _698
REMARK  271  A    between atoms: _701  and  _703
REMARK  272  A    between atoms: _703  and  _704
REMARK  273  A    between atoms: _703  and  _706
REMARK  274  A    between atoms: _706  and  _707
REMARK  275  A    between atoms: _710  and  _712
REMARK  276  A    between atoms: _712  and  _713
REMARK  277  A    between atoms: _712  and  _715
REMARK  278  A    between atoms: _715  and  _716
REMARK                            x       y       z     vdW  Elec       q    Type
REMARK                         _______ _______ _______ _____ _____    ______ ____
ROOT
ATOM      1  O   HOH     1      42.525  12.370 -18.193  0.00  0.00    +0.000 OA
ENDROOT
TORSDOF 0
REMARK  Name = ../refined-set-2016/4ksy/4ksy_pocket.pdb
REMARK  278 active torsions:
REMARK  status: ('A' for Active; 'I' for Inactive)
REMARK    1  A    between atoms: _1  and  _3
REMARK    2  A    between atoms: _3  and  _4
REMARK    3  A    between atoms: _6  and  _8
REMARK    4  A    between atoms: _8  and  _9
REMARK    5  A    between atoms: _8  and  _11
REMARK    6  A    between atoms: _11  and  _12
REMARK    7  A    between atoms: _15  and  _17
REMARK    8  A    between atoms: _17  and  _18
REMARK    9  A    between atoms: _21  and  _23
REMARK   10  A    between atoms: _23  and  _24
REMARK   11  A    between atoms: _23  and  _26
REMARK   12  A    between atoms: _26  and  _27
REMARK   13  A    between atoms: _37  and  _39
REMARK   14  A    between atoms: _39  and  _40
REMARK   15  A    between atoms: _39  and  _42
REMARK   16  A    between atoms: _42  and  _43
REMARK   17  A    between atoms: _45  and  _47
REMARK   18  A    between atoms: _47  and  _48
REMARK   19  A    between atoms: _47  and  _50
REMARK   20  A    between atoms: _50  and  _51
REMARK   21  A    between atoms: _56  and  _57
REMARK   22  A    between atoms: _59  and  _61
REMARK   23  A    between atoms: _61  and  _62
REMARK   24  A    between atoms: _61  and  _64
REMARK   25  A    between atoms: _64  and  _65
REMARK   26  A    between atoms: _70  and  _71
REMARK   27  A    between atoms: _73  and  _75
REMARK   28  A    between atoms: _75  and  _76
REMARK   29  A    between atoms: _75  and  _78
REMARK   30  A    between atoms: _78  and  _79
REMARK   31  A    between atoms: _82  and  _84
REMARK   32  A    between atoms: _84  and  _85
REMARK   33  A    between atoms: _87  and  _89
REMARK   34  A    between atoms: _89  and  _90
REMARK   35  A    between atoms: _89  and  _92
REMARK   36  A    between atoms: _92  and  _93
REMARK   37  A    between atoms: _98  and  _99
REMARK   38  A    between atoms: _101  and  _103
REMARK   39  A    between atoms: _103  and  _104
REMARK   40  A    between atoms: _103  and  _106
REMARK   41  A    between atoms: _106  and  _107
REMARK   42  A    between atoms: _110  and  _112
REMARK   43  A    between atoms: _112  and  _113
REMARK   44  A    between atoms: _112  and  _115
REMARK   45  A    between atoms: _115  and  _116
REMARK   46  A    between atoms: _116  and  _117
REMARK   47  A    between atoms: _117  and  _118
REMARK   48  A    between atoms: _127  and  _129
REMARK   49  A    between atoms: _129  and  _130
REMARK   50  A    between atoms: _129  and  _132
REMARK   51  A    between atoms: _132  and  _133
REMARK   52  A    between atoms: _136  and  _138
REMARK   53  A    between atoms: _138  and  _139
REMARK   54  A    between atoms: _138  and  _141
REMARK   55  A    between atoms: _141  and  _142
REMARK   56  A    between atoms: _145  and  _147
REMARK   57  A    between atoms: _147  and  _148
REMARK   58  A    between atoms: _147  and  _150
REMARK   59  A    between atoms: _150  and  _151
REMARK   60  A    between atoms: _154  and  _156
REMARK   61  A    between atoms: _156  and  _157
REMARK   62  A    between atoms: _156  and  _159
REMARK   63  A    between atoms: _159  and  _160
REMARK   64  A    between atoms: _163  and  _165
REMARK   65  A    between atoms: _165  and  _166
REMARK   66  A    between atoms: _165  and  _168
REMARK   67  A    between atoms: _168  and  _169
REMARK   68  A    between atoms: _169  and  _170
REMARK   69  A    between atoms: _175  and  _177
REMARK   70  A    between atoms: _177  and  _178
REMARK   71  A    between atoms: _177  and  _180
REMARK   72  A    between atoms: _180  and  _181
REMARK   73  A    between atoms: _181  and  _182
REMARK   74  A    between atoms: _182  and  _183
REMARK   75  A    between atoms: _192  and  _194
REMARK   76  A    between atoms: _194  and  _195
REMARK   77  A    between atoms: _198  and  _200
REMARK   78  A    between atoms: _200  and  _201
REMARK   79  A    between atoms: _200  and  _203
REMARK   80  A    between atoms: _203  and  _204
REMARK   81  A    between atoms: _207  and  _209
REMARK   82  A    between atoms: _209  and  _210
REMARK   83  A    between atoms: _209  and  _212
REMARK   84  A    between atoms: _212  and  _213
REMARK   85  A    between atoms: _216  and  _218
REMARK   86  A    between atoms: _218  and  _219
REMARK   87  A    between atoms: _218  and  _221
REMARK   88  A    between atoms: _221  and  _222
REMARK   89  A    between atoms: _222  and  _223
REMARK   90  A    between atoms: _223  and  _224
REMARK   91  A    between atoms: _233  and  _235
REMARK   92  A    between atoms: _235  and  _236
REMARK   93  A    between atoms: _235  and  _238
REMARK   94  A    between atoms: _241  and  _243
REMARK   95  A    between atoms: _243  and  _244
REMARK   96  A    between atoms: _243  and  _246
REMARK   97  A    between atoms: _246  and  _247
REMARK   98  A    between atoms: _252  and  _253
REMARK   99  A    between atoms: _255  and  _257
REMARK  100  A    between atoms: _257  and  _258
REMARK  101  A    between atoms: _257  and  _260
REMARK  102  A    between atoms: _260  and  _261
REMARK  103  A    between atoms: _263  and  _265
REMARK  104  A    between atoms: _265  and  _266
REMARK  105  A    between atoms: _265  and  _268
REMARK  106  A    between atoms: _268  and  _269
REMARK  107  A    between atoms: _274  and  _276
REMARK  108  A    between atoms: _276  and  _277
REMARK  109  A    between atoms: _276  and  _279
REMARK  110  A    between atoms: _279  and  _280
REMARK  111  A    between atoms: _280  and  _281
REMARK  112  A    between atoms: _284  and  _286
REMARK  113  A    between atoms: _286  and  _287
REMARK  114  A    between atoms: _286  and  _289
REMARK  115  A    between atoms: _289  and  _290
REMARK  116  A    between atoms: _295  and  _296
REMARK  117  A    between atoms: _298  and  _300
REMARK  118  A    between atoms: _300  and  _301
REMARK  119  A    between atoms: _304  and  _306
REMARK  120  A    between atoms: _306  and  _307
REMARK  121  A    between atoms: _306  and  _309
REMARK  122  A    between atoms: _309  and  _310
REMARK  123  A    between atoms: _314  and  _315
REMARK  124  A    between atoms: _320  and  _322
REMARK  125  A    between atoms: _322  and  _323
REMARK  126  A    between atoms: _322  and  _325
REMARK  127  A    between atoms: _325  and  _326
REMARK  128  A    between atoms: _329  and  _331
REMARK  129  A    between atoms: _331  and  _332
REMARK  130  A    between atoms: _331  and  _334
REMARK  131  A    between atoms: _334  and  _335
REMARK  132  A    between atoms: _335  and  _336
REMARK  133  A    between atoms: _341  and  _343
REMARK  134  A    between atoms: _343  and  _344
REMARK  135  A    between atoms: _343  and  _346
REMARK  136  A    between atoms: _346  and  _347
REMARK  137  A    between atoms: _350  and  _352
REMARK  138  A    between atoms: _352  and  _353
REMARK  139  A    between atoms: _352  and  _355
REMARK  140  A    between atoms: _355  and  _356
REMARK  141  A    between atoms: _362  and  _364
REMARK  142  A    between atoms: _364  and  _365
REMARK  143  A    between atoms: _364  and  _367
REMARK  144  A    between atoms: _367  and  _368
REMARK  145  A    between atoms: _371  and  _373
REMARK  146  A    between atoms: _373  and  _374
REMARK  147  A    between atoms: _377  and  _379
REMARK  148  A    between atoms: _379  and  _380
REMARK  149  A    between atoms: _379  and  _382
REMARK  150  A    between atoms: _382  and  _383
REMARK  151  A    between atoms: _393  and  _395
REMARK  152  A    between atoms: _395  and  _396
REMARK  153  A    between atoms: _395  and  _398
REMARK  154  A    between atoms: _398  and  _399
REMARK  155  A    between atoms: _401  and  _403
REMARK  156  A    between atoms: _403  and  _404
REMARK  157  A    between atoms: _403  and  _406
REMARK  158  A    between atoms: _406  and  _407
REMARK  159  A    between atoms: _412  and  _413
REMARK  160  A    between atoms: _415  and  _417
REMARK  161  A    between atoms: _417  and  _418
REMARK  162  A    between atoms: _417  and  _420
REMARK  163  A    between atoms: _420  and  _421
REMARK  164  A    between atoms: _426  and  _427
REMARK  165  A    between atoms: _429  and  _431
REMARK  166  A    between atoms: _431  and  _432
REMARK  167  A    between atoms: _431  and  _434
REMARK  168  A    between atoms: _434  and  _435
REMARK  169  A    between atoms: _438  and  _440
REMARK  170  A    between atoms: _440  and  _441
REMARK  171  A    between atoms: _443  and  _445
REMARK  172  A    between atoms: _445  and  _446
REMARK  173  A    between atoms: _445  and  _448
REMARK  174  A    between atoms: _448  and  _449
REMARK  175  A    between atoms: _454  and  _455
REMARK  176  A    between atoms: _457  and  _459
REMARK  177  A    between atoms: _459  and  _460
REMARK  178  A    between atoms: _459  and  _462
REMARK  179  A    between atoms: _462  and  _463
REMARK  180  A    between atoms: _466  and  _468
REMARK  181  A    between atoms: _468  and  _469
REMARK  182  A    between atoms: _468  and  _471
REMARK  183  A    between atoms: _471  and  _472
REMARK  184  A    between atoms: _472  and  _473
REMARK  185  A    between atoms: _473  and  _474
REMARK  186  A    between atoms: _483  and  _485
REMARK  187  A    between atoms: _485  and  _486
REMARK  188  A    between atoms: _485  and  _488
REMARK  189  A    between atoms: _488  and  _489
REMARK  190  A    between atoms: _492  and  _494
REMARK  191  A    between atoms: _494  and  _495
REMARK  192  A    between atoms: _494  and  _497
REMARK  193  A    between atoms: _497  and  _498
REMARK  194  A    between atoms: _501  and  _503
REMARK  195  A    between atoms: _503  and  _504
REMARK  196  A    between atoms: _503  and  _506
REMARK  197  A    between atoms: _506  and  _507
REMARK  198  A    between atoms: _507  and  _508
REMARK  199  A    between atoms: _508  and  _509
REMARK  200  A    between atoms: _518  and  _520
REMARK  201  A    between atoms: _520  and  _521
REMARK  202  A    between atoms: _520  and  _523
REMARK  203  A    between atoms: _523  and  _524
REMARK  204  A    between atoms: _524  and  _525
REMARK  205  A    between atoms: _530  and  _532
REMARK  206  A    between atoms: _532  and  _533
REMARK  207  A    between atoms: _532  and  _535
REMARK  208  A    between atoms: _535  and  _536
REMARK  209  A    between atoms: _536  and  _537
REMARK  210  A    between atoms: _537  and  _538
REMARK  211  A    between atoms: _547  and  _549
REMARK  212  A    between atoms: _549  and  _550
REMARK  213  A    between atoms: _553  and  _555
REMARK  214  A    between atoms: _555  and  _556
REMARK  215  A    between atoms: _558  and  _560
REMARK  216  A    between atoms: _560  and  _561
REMARK  217  A    between atoms: _560  and  _563
REMARK  218  A    between atoms: _563  and  _564
REMARK  219  A    between atoms: _567  and  _569
REMARK  220  A    between atoms: _569  and  _570
REMARK  221  A    between atoms: _569  and  _572
REMARK  222  A    between atoms: _572  and  _573
REMARK  223  A    between atoms: _573  and  _574
REMARK  224  A    between atoms: _574  and  _575
REMARK  225  A    between atoms: _584  and  _586
REMARK  226  A    between atoms: _586  and  _587
REMARK  227  A    between atoms: _586  and  _589
REMARK  228  A    between atoms: _592  and  _594
REMARK  229  A    between atoms: _594  and  _595
REMARK  230  A    between atoms: _594  and  _597
REMARK  231  A    between atoms: _597  and  _598
REMARK  232  A    between atoms: _603  and  _604
REMARK  233  A    between atoms: _606  and  _608
REMARK  234  A    between atoms: _608  and  _609
REMARK  235  A    between atoms: _608  and  _611
REMARK  236  A    between atoms: _611  and  _612
REMARK  237  A    between atoms: _614  and  _616
REMARK  238  A    between atoms: _616  and  _617
REMARK  239  A    between atoms: _616  and  _619
REMARK  240  A    between atoms: _619  and  _620
REMARK  241  A    between atoms: _625  and  _627
REMARK  242  A    between atoms: _627  and  _628
REMARK  243  A    between atoms: _627  and  _630
REMARK  244  A    between atoms: _630  and  _631
REMARK  245  A    between atoms: _631  and  _632
REMARK  246  A    between atoms: _635  and  _637
REMARK  247  A    between atoms: _637  and  _638
REMARK  248  A    between atoms: _637  and  _640
REMARK  249  A    between atoms: _640  and  _641
REMARK  250  A    between atoms: _646  and  _647
REMARK  251  A    between atoms: _649  and  _651
REMARK  252  A    between atoms: _651  and  _652
REMARK  253  A    between atoms: _655  and  _657
REMARK  254  A    between atoms: _657  and  _658
REMARK  255  A    between atoms: _657  and  _660
REMARK  256  A    between atoms: _660  and  _661
REMARK  257  A    between atoms: _665  and  _666
REMARK  258  A    between atoms: _671  and  _673
REMARK  259  A    between atoms: _673  and  _674
REMARK  260  A    between atoms: _673  and  _676
REMARK  261  A    between atoms: _676  and  _677
REMARK  262  A    between atoms: _680  and  _682
REMARK  263  A    between atoms: _682  and  _683
REMARK  264  A    between atoms: _682  and  _685
REMARK  265  A    between atoms: _685  and  _686
REMARK  266  A    between atoms: _686  and  _687
REMARK  267  A    between atoms: _692  and  _694
REMARK  268  A    between atoms: _694  and  _695
REMARK  269  A    between atoms: _694  and  _697
REMARK  270  A    between atoms: _697  and  _698
REMARK  271  A    between atoms: _701  and  _703
REMARK  272  A    between atoms: _703  and  _704
REMARK  273  A    between atoms: _703  and  _706
REMARK  274  A    between atoms: _706  and  _707
REMARK  275  A    between atoms: _710  and  _712
REMARK  276  A    between atoms: _712  and  _713
REMARK  277  A    between atoms: _712  and  _715
REMARK  278  A    between atoms: _715  and  _716
REMARK                            x       y       z     vdW  Elec       q    Type
REMARK                         _______ _______ _______ _____ _____    ______ ____
ROOT
ATOM      1  O   HOH     1      58.965  12.118 -16.856  0.00  0.00    +0.000 OA
ENDROOT
TORSDOF 0
REMARK  Name = ../refined-set-2016/4ksy/4ksy_pocket.pdb
REMARK  278 active torsions:
REMARK  status: ('A' for Active; 'I' for Inactive)
REMARK    1  A    between atoms: _1  and  _3
REMARK    2  A    between atoms: _3  and  _4
REMARK    3  A    between atoms: _6  and  _8
REMARK    4  A    between atoms: _8  and  _9
REMARK    5  A    between atoms: _8  and  _11
REMARK    6  A    between atoms: _11  and  _12
REMARK    7  A    between atoms: _15  and  _17
REMARK    8  A    between atoms: _17  and  _18
REMARK    9  A    between atoms: _21  and  _23
REMARK   10  A    between atoms: _23  and  _24
REMARK   11  A    between atoms: _23  and  _26
REMARK   12  A    between atoms: _26  and  _27
REMARK   13  A    between atoms: _37  and  _39
REMARK   14  A    between atoms: _39  and  _40
REMARK   15  A    between atoms: _39  and  _42
REMARK   16  A    between atoms: _42  and  _43
REMARK   17  A    between atoms: _45  and  _47
REMARK   18  A    between atoms: _47  and  _48
REMARK   19  A    between atoms: _47  and  _50
REMARK   20  A    between atoms: _50  and  _51
REMARK   21  A    between atoms: _56  and  _57
REMARK   22  A    between atoms: _59  and  _61
REMARK   23  A    between atoms: _61  and  _62
REMARK   24  A    between atoms: _61  and  _64
REMARK   25  A    between atoms: _64  and  _65
REMARK   26  A    between atoms: _70  and  _71
REMARK   27  A    between atoms: _73  and  _75
REMARK   28  A    between atoms: _75  and  _76
REMARK   29  A    between atoms: _75  and  _78
REMARK   30  A    between atoms: _78  and  _79
REMARK   31  A    between atoms: _82  and  _84
REMARK   32  A    between atoms: _84  and  _85
REMARK   33  A    between atoms: _87  and  _89
REMARK   34  A    between atoms: _89  and  _90
REMARK   35  A    between atoms: _89  and  _92
REMARK   36  A    between atoms: _92  and  _93
REMARK   37  A    between atoms: _98  and  _99
REMARK   38  A    between atoms: _101  and  _103
REMARK   39  A    between atoms: _103  and  _104
REMARK   40  A    between atoms: _103  and  _106
REMARK   41  A    between atoms: _106  and  _107
REMARK   42  A    between atoms: _110  and  _112
REMARK   43  A    between atoms: _112  and  _113
REMARK   44  A    between atoms: _112  and  _115
REMARK   45  A    between atoms: _115  and  _116
REMARK   46  A    between atoms: _116  and  _117
REMARK   47  A    between atoms: _117  and  _118
REMARK   48  A    between atoms: _127  and  _129
REMARK   49  A    between atoms: _129  and  _130
REMARK   50  A    between atoms: _129  and  _132
REMARK   51  A    between atoms: _132  and  _133
REMARK   52  A    between atoms: _136  and  _138
REMARK   53  A    between atoms: _138  and  _139
REMARK   54  A    between atoms: _138  and  _141
REMARK   55  A    between atoms: _141  and  _142
REMARK   56  A    between atoms: _145  and  _147
REMARK   57  A    between atoms: _147  and  _148
REMARK   58  A    between atoms: _147  and  _150
REMARK   59  A    between atoms: _150  and  _151
REMARK   60  A    between atoms: _154  and  _156
REMARK   61  A    between atoms: _156  and  _157
REMARK   62  A    between atoms: _156  and  _159
REMARK   63  A    between atoms: _159  and  _160
REMARK   64  A    between atoms: _163  and  _165
REMARK   65  A    between atoms: _165  and  _166
REMARK   66  A    between atoms: _165  and  _168
REMARK   67  A    between atoms: _168  and  _169
REMARK   68  A    between atoms: _169  and  _170
REMARK   69  A    between atoms: _175  and  _177
REMARK   70  A    between atoms: _177  and  _178
REMARK   71  A    between atoms: _177  and  _180
REMARK   72  A    between atoms: _180  and  _181
REMARK   73  A    between atoms: _181  and  _182
REMARK   74  A    between atoms: _182  and  _183
REMARK   75  A    between atoms: _192  and  _194
REMARK   76  A    between atoms: _194  and  _195
REMARK   77  A    between atoms: _198  and  _200
REMARK   78  A    between atoms: _200  and  _201
REMARK   79  A    between atoms: _200  and  _203
REMARK   80  A    between atoms: _203  and  _204
REMARK   81  A    between atoms: _207  and  _209
REMARK   82  A    between atoms: _209  and  _210
REMARK   83  A    between atoms: _209  and  _212
REMARK   84  A    between atoms: _212  and  _213
REMARK   85  A    between atoms: _216  and  _218
REMARK   86  A    between atoms: _218  and  _219
REMARK   87  A    between atoms: _218  and  _221
REMARK   88  A    between atoms: _221  and  _222
REMARK   89  A    between atoms: _222  and  _223
REMARK   90  A    between atoms: _223  and  _224
REMARK   91  A    between atoms: _233  and  _235
REMARK   92  A    between atoms: _235  and  _236
REMARK   93  A    between atoms: _235  and  _238
REMARK   94  A    between atoms: _241  and  _243
REMARK   95  A    between atoms: _243  and  _244
REMARK   96  A    between atoms: _243  and  _246
REMARK   97  A    between atoms: _246  and  _247
REMARK   98  A    between atoms: _252  and  _253
REMARK   99  A    between atoms: _255  and  _257
REMARK  100  A    between atoms: _257  and  _258
REMARK  101  A    between atoms: _257  and  _260
REMARK  102  A    between atoms: _260  and  _261
REMARK  103  A    between atoms: _263  and  _265
REMARK  104  A    between atoms: _265  and  _266
REMARK  105  A    between atoms: _265  and  _268
REMARK  106  A    between atoms: _268  and  _269
REMARK  107  A    between atoms: _274  and  _276
REMARK  108  A    between atoms: _276  and  _277
REMARK  109  A    between atoms: _276  and  _279
REMARK  110  A    between atoms: _279  and  _280
REMARK  111  A    between atoms: _280  and  _281
REMARK  112  A    between atoms: _284  and  _286
REMARK  113  A    between atoms: _286  and  _287
REMARK  114  A    between atoms: _286  and  _289
REMARK  115  A    between atoms: _289  and  _290
REMARK  116  A    between atoms: _295  and  _296
REMARK  117  A    between atoms: _298  and  _300
REMARK  118  A    between atoms: _300  and  _301
REMARK  119  A    between atoms: _304  and  _306
REMARK  120  A    between atoms: _306  and  _307
REMARK  121  A    between atoms: _306  and  _309
REMARK  122  A    between atoms: _309  and  _310
REMARK  123  A    between atoms: _314  and  _315
REMARK  124  A    between atoms: _320  and  _322
REMARK  125  A    between atoms: _322  and  _323
REMARK  126  A    between atoms: _322  and  _325
REMARK  127  A    between atoms: _325  and  _326
REMARK  128  A    between atoms: _329  and  _331
REMARK  129  A    between atoms: _331  and  _332
REMARK  130  A    between atoms: _331  and  _334
REMARK  131  A    between atoms: _334  and  _335
REMARK  132  A    between atoms: _335  and  _336
REMARK  133  A    between atoms: _341  and  _343
REMARK  134  A    between atoms: _343  and  _344
REMARK  135  A    between atoms: _343  and  _346
REMARK  136  A    between atoms: _346  and  _347
REMARK  137  A    between atoms: _350  and  _352
REMARK  138  A    between atoms: _352  and  _353
REMARK  139  A    between atoms: _352  and  _355
REMARK  140  A    between atoms: _355  and  _356
REMARK  141  A    between atoms: _362  and  _364
REMARK  142  A    between atoms: _364  and  _365
REMARK  143  A    between atoms: _364  and  _367
REMARK  144  A    between atoms: _367  and  _368
REMARK  145  A    between atoms: _371  and  _373
REMARK  146  A    between atoms: _373  and  _374
REMARK  147  A    between atoms: _377  and  _379
REMARK  148  A    between atoms: _379  and  _380
REMARK  149  A    between atoms: _379  and  _382
REMARK  150  A    between atoms: _382  and  _383
REMARK  151  A    between atoms: _393  and  _395
REMARK  152  A    between atoms: _395  and  _396
REMARK  153  A    between atoms: _395  and  _398
REMARK  154  A    between atoms: _398  and  _399
REMARK  155  A    between atoms: _401  and  _403
REMARK  156  A    between atoms: _403  and  _404
REMARK  157  A    between atoms: _403  and  _406
REMARK  158  A    between atoms: _406  and  _407
REMARK  159  A    between atoms: _412  and  _413
REMARK  160  A    between atoms: _415  and  _417
REMARK  161  A    between atoms: _417  and  _418
REMARK  162  A    between atoms: _417  and  _420
REMARK  163  A    between atoms: _420  and  _421
REMARK  164  A    between atoms: _426  and  _427
REMARK  165  A    between atoms: _429  and  _431
REMARK  166  A    between atoms: _431  and  _432
REMARK  167  A    between atoms: _431  and  _434
REMARK  168  A    between atoms: _434  and  _435
REMARK  169  A    between atoms: _438  and  _440
REMARK  170  A    between atoms: _440  and  _441
REMARK  171  A    between atoms: _443  and  _445
REMARK  172  A    between atoms: _445  and  _446
REMARK  173  A    between atoms: _445  and  _448
REMARK  174  A    between atoms: _448  and  _449
REMARK  175  A    between atoms: _454  and  _455
REMARK  176  A    between atoms: _457  and  _459
REMARK  177  A    between atoms: _459  and  _460
REMARK  178  A    between atoms: _459  and  _462
REMARK  179  A    between atoms: _462  and  _463
REMARK  180  A    between atoms: _466  and  _468
REMARK  181  A    between atoms: _468  and  _469
REMARK  182  A    between atoms: _468  and  _471
REMARK  183  A    between atoms: _471  and  _472
REMARK  184  A    between atoms: _472  and  _473
REMARK  185  A    between atoms: _473  and  _474
REMARK  186  A    between atoms: _483  and  _485
REMARK  187  A    between atoms: _485  and  _486
REMARK  188  A    between atoms: _485  and  _488
REMARK  189  A    between atoms: _488  and  _489
REMARK  190  A    between atoms: _492  and  _494
REMARK  191  A    between atoms: _494  and  _495
REMARK  192  A    between atoms: _494  and  _497
REMARK  193  A    between atoms: _497  and  _498
REMARK  194  A    between atoms: _501  and  _503
REMARK  195  A    between atoms: _503  and  _504
REMARK  196  A    between atoms: _503  and  _506
REMARK  197  A    between atoms: _506  and  _507
REMARK  198  A    between atoms: _507  and  _508
REMARK  199  A    between atoms: _508  and  _509
REMARK  200  A    between atoms: _518  and  _520
REMARK  201  A    between atoms: _520  and  _521
REMARK  202  A    between atoms: _520  and  _523
REMARK  203  A    between atoms: _523  and  _524
REMARK  204  A    between atoms: _524  and  _525
REMARK  205  A    between atoms: _530  and  _532
REMARK  206  A    between atoms: _532  and  _533
REMARK  207  A    between atoms: _532  and  _535
REMARK  208  A    between atoms: _535  and  _536
REMARK  209  A    between atoms: _536  and  _537
REMARK  210  A    between atoms: _537  and  _538
REMARK  211  A    between atoms: _547  and  _549
REMARK  212  A    between atoms: _549  and  _550
REMARK  213  A    between atoms: _553  and  _555
REMARK  214  A    between atoms: _555  and  _556
REMARK  215  A    between atoms: _558  and  _560
REMARK  216  A    between atoms: _560  and  _561
REMARK  217  A    between atoms: _560  and  _563
REMARK  218  A    between atoms: _563  and  _564
REMARK  219  A    between atoms: _567  and  _569
REMARK  220  A    between atoms: _569  and  _570
REMARK  221  A    between atoms: _569  and  _572
REMARK  222  A    between atoms: _572  and  _573
REMARK  223  A    between atoms: _573  and  _574
REMARK  224  A    between atoms: _574  and  _575
REMARK  225  A    between atoms: _584  and  _586
REMARK  226  A    between atoms: _586  and  _587
REMARK  227  A    between atoms: _586  and  _589
REMARK  228  A    between atoms: _592  and  _594
REMARK  229  A    between atoms: _594  and  _595
REMARK  230  A    between atoms: _594  and  _597
REMARK  231  A    between atoms: _597  and  _598
REMARK  232  A    between atoms: _603  and  _604
REMARK  233  A    between atoms: _606  and  _608
REMARK  234  A    between atoms: _608  and  _609
REMARK  235  A    between atoms: _608  and  _611
REMARK  236  A    between atoms: _611  and  _612
REMARK  237  A    between atoms: _614  and  _616
REMARK  238  A    between atoms: _616  and  _617
REMARK  239  A    between atoms: _616  and  _619
REMARK  240  A    between atoms: _619  and  _620
REMARK  241  A    between atoms: _625  and  _627
REMARK  242  A    between atoms: _627  and  _628
REMARK  243  A    between atoms: _627  and  _630
REMARK  244  A    between atoms: _630  and  _631
REMARK  245  A    between atoms: _631  and  _632
REMARK  246  A    between atoms: _635  and  _637
REMARK  247  A    between atoms: _637  and  _638
REMARK  248  A    between atoms: _637  and  _640
REMARK  249  A    between atoms: _640  and  _641
REMARK  250  A    between atoms: _646  and  _647
REMARK  251  A    between atoms: _649  and  _651
REMARK  252  A    between atoms: _651  and  _652
REMARK  253  A    between atoms: _655  and  _657
REMARK  254  A    between atoms: _657  and  _658
REMARK  255  A    between atoms: _657  and  _660
REMARK  256  A    between atoms: _660  and  _661
REMARK  257  A    between atoms: _665  and  _666
REMARK  258  A    between atoms: _671  and  _673
REMARK  259  A    between atoms: _673  and  _674
REMARK  260  A    between atoms: _673  and  _676
REMARK  261  A    between atoms: _676  and  _677
REMARK  262  A    between atoms: _680  and  _682
REMARK  263  A    between atoms: _682  and  _683
REMARK  264  A    between atoms: _682  and  _685
REMARK  265  A    between atoms: _685  and  _686
REMARK  266  A    between atoms: _686  and  _687
REMARK  267  A    between atoms: _692  and  _694
REMARK  268  A    between atoms: _694  and  _695
REMARK  269  A    between atoms: _694  and  _697
REMARK  270  A    between atoms: _697  and  _698
REMARK  271  A    between atoms: _701  and  _703
REMARK  272  A    between atoms: _703  and  _704
REMARK  273  A    between atoms: _703  and  _706
REMARK  274  A    between atoms: _706  and  _707
REMARK  275  A    between atoms: _710  and  _712
REMARK  276  A    between atoms: _712  and  _713
REMARK  277  A    between atoms: _712  and  _715
REMARK  278  A    between atoms: _715  and  _716
REMARK                            x       y       z     vdW  Elec       q    Type
REMARK                         _______ _______ _______ _____ _____    ______ ____
ROOT
ATOM      1  O   HOH     1      44.502   1.327 -23.663  0.00  0.00    +0.000 OA
ENDROOT
TORSDOF 0
REMARK  Name = ../refined-set-2016/4ksy/4ksy_pocket.pdb
REMARK  278 active torsions:
REMARK  status: ('A' for Active; 'I' for Inactive)
REMARK    1  A    between atoms: _1  and  _3
REMARK    2  A    between atoms: _3  and  _4
REMARK    3  A    between atoms: _6  and  _8
REMARK    4  A    between atoms: _8  and  _9
REMARK    5  A    between atoms: _8  and  _11
REMARK    6  A    between atoms: _11  and  _12
REMARK    7  A    between atoms: _15  and  _17
REMARK    8  A    between atoms: _17  and  _18
REMARK    9  A    between atoms: _21  and  _23
REMARK   10  A    between atoms: _23  and  _24
REMARK   11  A    between atoms: _23  and  _26
REMARK   12  A    between atoms: _26  and  _27
REMARK   13  A    between atoms: _37  and  _39
REMARK   14  A    between atoms: _39  and  _40
REMARK   15  A    between atoms: _39  and  _42
REMARK   16  A    between atoms: _42  and  _43
REMARK   17  A    between atoms: _45  and  _47
REMARK   18  A    between atoms: _47  and  _48
REMARK   19  A    between atoms: _47  and  _50
REMARK   20  A    between atoms: _50  and  _51
REMARK   21  A    between atoms: _56  and  _57
REMARK   22  A    between atoms: _59  and  _61
REMARK   23  A    between atoms: _61  and  _62
REMARK   24  A    between atoms: _61  and  _64
REMARK   25  A    between atoms: _64  and  _65
REMARK   26  A    between atoms: _70  and  _71
REMARK   27  A    between atoms: _73  and  _75
REMARK   28  A    between atoms: _75  and  _76
REMARK   29  A    between atoms: _75  and  _78
REMARK   30  A    between atoms: _78  and  _79
REMARK   31  A    between atoms: _82  and  _84
REMARK   32  A    between atoms: _84  and  _85
REMARK   33  A    between atoms: _87  and  _89
REMARK   34  A    between atoms: _89  and  _90
REMARK   35  A    between atoms: _89  and  _92
REMARK   36  A    between atoms: _92  and  _93
REMARK   37  A    between atoms: _98  and  _99
REMARK   38  A    between atoms: _101  and  _103
REMARK   39  A    between atoms: _103  and  _104
REMARK   40  A    between atoms: _103  and  _106
REMARK   41  A    between atoms: _106  and  _107
REMARK   42  A    between atoms: _110  and  _112
REMARK   43  A    between atoms: _112  and  _113
REMARK   44  A    between atoms: _112  and  _115
REMARK   45  A    between atoms: _115  and  _116
REMARK   46  A    between atoms: _116  and  _117
REMARK   47  A    between atoms: _117  and  _118
REMARK   48  A    between atoms: _127  and  _129
REMARK   49  A    between atoms: _129  and  _130
REMARK   50  A    between atoms: _129  and  _132
REMARK   51  A    between atoms: _132  and  _133
REMARK   52  A    between atoms: _136  and  _138
REMARK   53  A    between atoms: _138  and  _139
REMARK   54  A    between atoms: _138  and  _141
REMARK   55  A    between atoms: _141  and  _142
REMARK   56  A    between atoms: _145  and  _147
REMARK   57  A    between atoms: _147  and  _148
REMARK   58  A    between atoms: _147  and  _150
REMARK   59  A    between atoms: _150  and  _151
REMARK   60  A    between atoms: _154  and  _156
REMARK   61  A    between atoms: _156  and  _157
REMARK   62  A    between atoms: _156  and  _159
REMARK   63  A    between atoms: _159  and  _160
REMARK   64  A    between atoms: _163  and  _165
REMARK   65  A    between atoms: _165  and  _166
REMARK   66  A    between atoms: _165  and  _168
REMARK   67  A    between atoms: _168  and  _169
REMARK   68  A    between atoms: _169  and  _170
REMARK   69  A    between atoms: _175  and  _177
REMARK   70  A    between atoms: _177  and  _178
REMARK   71  A    between atoms: _177  and  _180
REMARK   72  A    between atoms: _180  and  _181
REMARK   73  A    between atoms: _181  and  _182
REMARK   74  A    between atoms: _182  and  _183
REMARK   75  A    between atoms: _192  and  _194
REMARK   76  A    between atoms: _194  and  _195
REMARK   77  A    between atoms: _198  and  _200
REMARK   78  A    between atoms: _200  and  _201
REMARK   79  A    between atoms: _200  and  _203
REMARK   80  A    between atoms: _203  and  _204
REMARK   81  A    between atoms: _207  and  _209
REMARK   82  A    between atoms: _209  and  _210
REMARK   83  A    between atoms: _209  and  _212
REMARK   84  A    between atoms: _212  and  _213
REMARK   85  A    between atoms: _216  and  _218
REMARK   86  A    between atoms: _218  and  _219
REMARK   87  A    between atoms: _218  and  _221
REMARK   88  A    between atoms: _221  and  _222
REMARK   89  A    between atoms: _222  and  _223
REMARK   90  A    between atoms: _223  and  _224
REMARK   91  A    between atoms: _233  and  _235
REMARK   92  A    between atoms: _235  and  _236
REMARK   93  A    between atoms: _235  and  _238
REMARK   94  A    between atoms: _241  and  _243
REMARK   95  A    between atoms: _243  and  _244
REMARK   96  A    between atoms: _243  and  _246
REMARK   97  A    between atoms: _246  and  _247
REMARK   98  A    between atoms: _252  and  _253
REMARK   99  A    between atoms: _255  and  _257
REMARK  100  A    between atoms: _257  and  _258
REMARK  101  A    between atoms: _257  and  _260
REMARK  102  A    between atoms: _260  and  _261
REMARK  103  A    between atoms: _263  and  _265
REMARK  104  A    between atoms: _265  and  _266
REMARK  105  A    between atoms: _265  and  _268
REMARK  106  A    between atoms: _268  and  _269
REMARK  107  A    between atoms: _274  and  _276
REMARK  108  A    between atoms: _276  and  _277
REMARK  109  A    between atoms: _276  and  _279
REMARK  110  A    between atoms: _279  and  _280
REMARK  111  A    between atoms: _280  and  _281
REMARK  112  A    between atoms: _284  and  _286
REMARK  113  A    between atoms: _286  and  _287
REMARK  114  A    between atoms: _286  and  _289
REMARK  115  A    between atoms: _289  and  _290
REMARK  116  A    between atoms: _295  and  _296
REMARK  117  A    between atoms: _298  and  _300
REMARK  118  A    between atoms: _300  and  _301
REMARK  119  A    between atoms: _304  and  _306
REMARK  120  A    between atoms: _306  and  _307
REMARK  121  A    between atoms: _306  and  _309
REMARK  122  A    between atoms: _309  and  _310
REMARK  123  A    between atoms: _314  and  _315
REMARK  124  A    between atoms: _320  and  _322
REMARK  125  A    between atoms: _322  and  _323
REMARK  126  A    between atoms: _322  and  _325
REMARK  127  A    between atoms: _325  and  _326
REMARK  128  A    between atoms: _329  and  _331
REMARK  129  A    between atoms: _331  and  _332
REMARK  130  A    between atoms: _331  and  _334
REMARK  131  A    between atoms: _334  and  _335
REMARK  132  A    between atoms: _335  and  _336
REMARK  133  A    between atoms: _341  and  _343
REMARK  134  A    between atoms: _343  and  _344
REMARK  135  A    between atoms: _343  and  _346
REMARK  136  A    between atoms: _346  and  _347
REMARK  137  A    between atoms: _350  and  _352
REMARK  138  A    between atoms: _352  and  _353
REMARK  139  A    between atoms: _352  and  _355
REMARK  140  A    between atoms: _355  and  _356
REMARK  141  A    between atoms: _362  and  _364
REMARK  142  A    between atoms: _364  and  _365
REMARK  143  A    between atoms: _364  and  _367
REMARK  144  A    between atoms: _367  and  _368
REMARK  145  A    between atoms: _371  and  _373
REMARK  146  A    between atoms: _373  and  _374
REMARK  147  A    between atoms: _377  and  _379
REMARK  148  A    between atoms: _379  and  _380
REMARK  149  A    between atoms: _379  and  _382
REMARK  150  A    between atoms: _382  and  _383
REMARK  151  A    between atoms: _393  and  _395
REMARK  152  A    between atoms: _395  and  _396
REMARK  153  A    between atoms: _395  and  _398
REMARK  154  A    between atoms: _398  and  _399
REMARK  155  A    between atoms: _401  and  _403
REMARK  156  A    between atoms: _403  and  _404
REMARK  157  A    between atoms: _403  and  _406
REMARK  158  A    between atoms: _406  and  _407
REMARK  159  A    between atoms: _412  and  _413
REMARK  160  A    between atoms: _415  and  _417
REMARK  161  A    between atoms: _417  and  _418
REMARK  162  A    between atoms: _417  and  _420
REMARK  163  A    between atoms: _420  and  _421
REMARK  164  A    between atoms: _426  and  _427
REMARK  165  A    between atoms: _429  and  _431
REMARK  166  A    between atoms: _431  and  _432
REMARK  167  A    between atoms: _431  and  _434
REMARK  168  A    between atoms: _434  and  _435
REMARK  169  A    between atoms: _438  and  _440
REMARK  170  A    between atoms: _440  and  _441
REMARK  171  A    between atoms: _443  and  _445
REMARK  172  A    between atoms: _445  and  _446
REMARK  173  A    between atoms: _445  and  _448
REMARK  174  A    between atoms: _448  and  _449
REMARK  175  A    between atoms: _454  and  _455
REMARK  176  A    between atoms: _457  and  _459
REMARK  177  A    between atoms: _459  and  _460
REMARK  178  A    between atoms: _459  and  _462
REMARK  179  A    between atoms: _462  and  _463
REMARK  180  A    between atoms: _466  and  _468
REMARK  181  A    between atoms: _468  and  _469
REMARK  182  A    between atoms: _468  and  _471
REMARK  183  A    between atoms: _471  and  _472
REMARK  184  A    between atoms: _472  and  _473
REMARK  185  A    between atoms: _473  and  _474
REMARK  186  A    between atoms: _483  and  _485
REMARK  187  A    between atoms: _485  and  _486
REMARK  188  A    between atoms: _485  and  _488
REMARK  189  A    between atoms: _488  and  _489
REMARK  190  A    between atoms: _492  and  _494
REMARK  191  A    between atoms: _494  and  _495
REMARK  192  A    between atoms: _494  and  _497
REMARK  193  A    between atoms: _497  and  _498
REMARK  194  A    between atoms: _501  and  _503
REMARK  195  A    between atoms: _503  and  _504
REMARK  196  A    between atoms: _503  and  _506
REMARK  197  A    between atoms: _506  and  _507
REMARK  198  A    between atoms: _507  and  _508
REMARK  199  A    between atoms: _508  and  _509
REMARK  200  A    between atoms: _518  and  _520
REMARK  201  A    between atoms: _520  and  _521
REMARK  202  A    between atoms: _520  and  _523
REMARK  203  A    between atoms: _523  and  _524
REMARK  204  A    between atoms: _524  and  _525
REMARK  205  A    between atoms: _530  and  _532
REMARK  206  A    between atoms: _532  and  _533
REMARK  207  A    between atoms: _532  and  _535
REMARK  208  A    between atoms: _535  and  _536
REMARK  209  A    between atoms: _536  and  _537
REMARK  210  A    between atoms: _537  and  _538
REMARK  211  A    between atoms: _547  and  _549
REMARK  212  A    between atoms: _549  and  _550
REMARK  213  A    between atoms: _553  and  _555
REMARK  214  A    between atoms: _555  and  _556
REMARK  215  A    between atoms: _558  and  _560
REMARK  216  A    between atoms: _560  and  _561
REMARK  217  A    between atoms: _560  and  _563
REMARK  218  A    between atoms: _563  and  _564
REMARK  219  A    between atoms: _567  and  _569
REMARK  220  A    between atoms: _569  and  _570
REMARK  221  A    between atoms: _569  and  _572
REMARK  222  A    between atoms: _572  and  _573
REMARK  223  A    between atoms: _573  and  _574
REMARK  224  A    between atoms: _574  and  _575
REMARK  225  A    between atoms: _584  and  _586
REMARK  226  A    between atoms: _586  and  _587
REMARK  227  A    between atoms: _586  and  _589
REMARK  228  A    between atoms: _592  and  _594
REMARK  229  A    between atoms: _594  and  _595
REMARK  230  A    between atoms: _594  and  _597
REMARK  231  A    between atoms: _597  and  _598
REMARK  232  A    between atoms: _603  and  _604
REMARK  233  A    between atoms: _606  and  _608
REMARK  234  A    between atoms: _608  and  _609
REMARK  235  A    between atoms: _608  and  _611
REMARK  236  A    between atoms: _611  and  _612
REMARK  237  A    between atoms: _614  and  _616
REMARK  238  A    between atoms: _616  and  _617
REMARK  239  A    between atoms: _616  and  _619
REMARK  240  A    between atoms: _619  and  _620
REMARK  241  A    between atoms: _625  and  _627
REMARK  242  A    between atoms: _627  and  _628
REMARK  243  A    between atoms: _627  and  _630
REMARK  244  A    between atoms: _630  and  _631
REMARK  245  A    between atoms: _631  and  _632
REMARK  246  A    between atoms: _635  and  _637
REMARK  247  A    between atoms: _637  and  _638
REMARK  248  A    between atoms: _637  and  _640
REMARK  249  A    between atoms: _640  and  _641
REMARK  250  A    between atoms: _646  and  _647
REMARK  251  A    between atoms: _649  and  _651
REMARK  252  A    between atoms: _651  and  _652
REMARK  253  A    between atoms: _655  and  _657
REMARK  254  A    between atoms: _657  and  _658
REMARK  255  A    between atoms: _657  and  _660
REMARK  256  A    between atoms: _660  and  _661
REMARK  257  A    between atoms: _665  and  _666
REMARK  258  A    between atoms: _671  and  _673
REMARK  259  A    between atoms: _673  and  _674
REMARK  260  A    between atoms: _673  and  _676
REMARK  261  A    between atoms: _676  and  _677
REMARK  262  A    between atoms: _680  and  _682
REMARK  263  A    between atoms: _682  and  _683
REMARK  264  A    between atoms: _682  and  _685
REMARK  265  A    between atoms: _685  and  _686
REMARK  266  A    between atoms: _686  and  _687
REMARK  267  A    between atoms: _692  and  _694
REMARK  268  A    between atoms: _694  and  _695
REMARK  269  A    between atoms: _694  and  _697
REMARK  270  A    between atoms: _697  and  _698
REMARK  271  A    between atoms: _701  and  _703
REMARK  272  A    between atoms: _703  and  _704
REMARK  273  A    between atoms: _703  and  _706
REMARK  274  A    between atoms: _706  and  _707
REMARK  275  A    between atoms: _710  and  _712
REMARK  276  A    between atoms: _712  and  _713
REMARK  277  A    between atoms: _712  and  _715
REMARK  278  A    between atoms: _715  and  _716
REMARK                            x       y       z     vdW  Elec       q    Type
REMARK                         _______ _______ _______ _____ _____    ______ ____
ROOT
ATOM      1  O   HOH     1      49.331   3.188  -9.740  0.00  0.00    +0.000 OA
ENDROOT
TORSDOF 0
REMARK  Name = ../refined-set-2016/4ksy/4ksy_pocket.pdb
REMARK  278 active torsions:
REMARK  status: ('A' for Active; 'I' for Inactive)
REMARK    1  A    between atoms: _1  and  _3
REMARK    2  A    between atoms: _3  and  _4
REMARK    3  A    between atoms: _6  and  _8
REMARK    4  A    between atoms: _8  and  _9
REMARK    5  A    between atoms: _8  and  _11
REMARK    6  A    between atoms: _11  and  _12
REMARK    7  A    between atoms: _15  and  _17
REMARK    8  A    between atoms: _17  and  _18
REMARK    9  A    between atoms: _21  and  _23
REMARK   10  A    between atoms: _23  and  _24
REMARK   11  A    between atoms: _23  and  _26
REMARK   12  A    between atoms: _26  and  _27
REMARK   13  A    between atoms: _37  and  _39
REMARK   14  A    between atoms: _39  and  _40
REMARK   15  A    between atoms: _39  and  _42
REMARK   16  A    between atoms: _42  and  _43
REMARK   17  A    between atoms: _45  and  _47
REMARK   18  A    between atoms: _47  and  _48
REMARK   19  A    between atoms: _47  and  _50
REMARK   20  A    between atoms: _50  and  _51
REMARK   21  A    between atoms: _56  and  _57
REMARK   22  A    between atoms: _59  and  _61
REMARK   23  A    between atoms: _61  and  _62
REMARK   24  A    between atoms: _61  and  _64
REMARK   25  A    between atoms: _64  and  _65
REMARK   26  A    between atoms: _70  and  _71
REMARK   27  A    between atoms: _73  and  _75
REMARK   28  A    between atoms: _75  and  _76
REMARK   29  A    between atoms: _75  and  _78
REMARK   30  A    between atoms: _78  and  _79
REMARK   31  A    between atoms: _82  and  _84
REMARK   32  A    between atoms: _84  and  _85
REMARK   33  A    between atoms: _87  and  _89
REMARK   34  A    between atoms: _89  and  _90
REMARK   35  A    between atoms: _89  and  _92
REMARK   36  A    between atoms: _92  and  _93
REMARK   37  A    between atoms: _98  and  _99
REMARK   38  A    between atoms: _101  and  _103
REMARK   39  A    between atoms: _103  and  _104
REMARK   40  A    between atoms: _103  and  _106
REMARK   41  A    between atoms: _106  and  _107
REMARK   42  A    between atoms: _110  and  _112
REMARK   43  A    between atoms: _112  and  _113
REMARK   44  A    between atoms: _112  and  _115
REMARK   45  A    between atoms: _115  and  _116
REMARK   46  A    between atoms: _116  and  _117
REMARK   47  A    between atoms: _117  and  _118
REMARK   48  A    between atoms: _127  and  _129
REMARK   49  A    between atoms: _129  and  _130
REMARK   50  A    between atoms: _129  and  _132
REMARK   51  A    between atoms: _132  and  _133
REMARK   52  A    between atoms: _136  and  _138
REMARK   53  A    between atoms: _138  and  _139
REMARK   54  A    between atoms: _138  and  _141
REMARK   55  A    between atoms: _141  and  _142
REMARK   56  A    between atoms: _145  and  _147
REMARK   57  A    between atoms: _147  and  _148
REMARK   58  A    between atoms: _147  and  _150
REMARK   59  A    between atoms: _150  and  _151
REMARK   60  A    between atoms: _154  and  _156
REMARK   61  A    between atoms: _156  and  _157
REMARK   62  A    between atoms: _156  and  _159
REMARK   63  A    between atoms: _159  and  _160
REMARK   64  A    between atoms: _163  and  _165
REMARK   65  A    between atoms: _165  and  _166
REMARK   66  A    between atoms: _165  and  _168
REMARK   67  A    between atoms: _168  and  _169
REMARK   68  A    between atoms: _169  and  _170
REMARK   69  A    between atoms: _175  and  _177
REMARK   70  A    between atoms: _177  and  _178
REMARK   71  A    between atoms: _177  and  _180
REMARK   72  A    between atoms: _180  and  _181
REMARK   73  A    between atoms: _181  and  _182
REMARK   74  A    between atoms: _182  and  _183
REMARK   75  A    between atoms: _192  and  _194
REMARK   76  A    between atoms: _194  and  _195
REMARK   77  A    between atoms: _198  and  _200
REMARK   78  A    between atoms: _200  and  _201
REMARK   79  A    between atoms: _200  and  _203
REMARK   80  A    between atoms: _203  and  _204
REMARK   81  A    between atoms: _207  and  _209
REMARK   82  A    between atoms: _209  and  _210
REMARK   83  A    between atoms: _209  and  _212
REMARK   84  A    between atoms: _212  and  _213
REMARK   85  A    between atoms: _216  and  _218
REMARK   86  A    between atoms: _218  and  _219
REMARK   87  A    between atoms: _218  and  _221
REMARK   88  A    between atoms: _221  and  _222
REMARK   89  A    between atoms: _222  and  _223
REMARK   90  A    between atoms: _223  and  _224
REMARK   91  A    between atoms: _233  and  _235
REMARK   92  A    between atoms: _235  and  _236
REMARK   93  A    between atoms: _235  and  _238
REMARK   94  A    between atoms: _241  and  _243
REMARK   95  A    between atoms: _243  and  _244
REMARK   96  A    between atoms: _243  and  _246
REMARK   97  A    between atoms: _246  and  _247
REMARK   98  A    between atoms: _252  and  _253
REMARK   99  A    between atoms: _255  and  _257
REMARK  100  A    between atoms: _257  and  _258
REMARK  101  A    between atoms: _257  and  _260
REMARK  102  A    between atoms: _260  and  _261
REMARK  103  A    between atoms: _263  and  _265
REMARK  104  A    between atoms: _265  and  _266
REMARK  105  A    between atoms: _265  and  _268
REMARK  106  A    between atoms: _268  and  _269
REMARK  107  A    between atoms: _274  and  _276
REMARK  108  A    between atoms: _276  and  _277
REMARK  109  A    between atoms: _276  and  _279
REMARK  110  A    between atoms: _279  and  _280
REMARK  111  A    between atoms: _280  and  _281
REMARK  112  A    between atoms: _284  and  _286
REMARK  113  A    between atoms: _286  and  _287
REMARK  114  A    between atoms: _286  and  _289
REMARK  115  A    between atoms: _289  and  _290
REMARK  116  A    between atoms: _295  and  _296
REMARK  117  A    between atoms: _298  and  _300
REMARK  118  A    between atoms: _300  and  _301
REMARK  119  A    between atoms: _304  and  _306
REMARK  120  A    between atoms: _306  and  _307
REMARK  121  A    between atoms: _306  and  _309
REMARK  122  A    between atoms: _309  and  _310
REMARK  123  A    between atoms: _314  and  _315
REMARK  124  A    between atoms: _320  and  _322
REMARK  125  A    between atoms: _322  and  _323
REMARK  126  A    between atoms: _322  and  _325
REMARK  127  A    between atoms: _325  and  _326
REMARK  128  A    between atoms: _329  and  _331
REMARK  129  A    between atoms: _331  and  _332
REMARK  130  A    between atoms: _331  and  _334
REMARK  131  A    between atoms: _334  and  _335
REMARK  132  A    between atoms: _335  and  _336
REMARK  133  A    between atoms: _341  and  _343
REMARK  134  A    between atoms: _343  and  _344
REMARK  135  A    between atoms: _343  and  _346
REMARK  136  A    between atoms: _346  and  _347
REMARK  137  A    between atoms: _350  and  _352
REMARK  138  A    between atoms: _352  and  _353
REMARK  139  A    between atoms: _352  and  _355
REMARK  140  A    between atoms: _355  and  _356
REMARK  141  A    between atoms: _362  and  _364
REMARK  142  A    between atoms: _364  and  _365
REMARK  143  A    between atoms: _364  and  _367
REMARK  144  A    between atoms: _367  and  _368
REMARK  145  A    between atoms: _371  and  _373
REMARK  146  A    between atoms: _373  and  _374
REMARK  147  A    between atoms: _377  and  _379
REMARK  148  A    between atoms: _379  and  _380
REMARK  149  A    between atoms: _379  and  _382
REMARK  150  A    between atoms: _382  and  _383
REMARK  151  A    between atoms: _393  and  _395
REMARK  152  A    between atoms: _395  and  _396
REMARK  153  A    between atoms: _395  and  _398
REMARK  154  A    between atoms: _398  and  _399
REMARK  155  A    between atoms: _401  and  _403
REMARK  156  A    between atoms: _403  and  _404
REMARK  157  A    between atoms: _403  and  _406
REMARK  158  A    between atoms: _406  and  _407
REMARK  159  A    between atoms: _412  and  _413
REMARK  160  A    between atoms: _415  and  _417
REMARK  161  A    between atoms: _417  and  _418
REMARK  162  A    between atoms: _417  and  _420
REMARK  163  A    between atoms: _420  and  _421
REMARK  164  A    between atoms: _426  and  _427
REMARK  165  A    between atoms: _429  and  _431
REMARK  166  A    between atoms: _431  and  _432
REMARK  167  A    between atoms: _431  and  _434
REMARK  168  A    between atoms: _434  and  _435
REMARK  169  A    between atoms: _438  and  _440
REMARK  170  A    between atoms: _440  and  _441
REMARK  171  A    between atoms: _443  and  _445
REMARK  172  A    between atoms: _445  and  _446
REMARK  173  A    between atoms: _445  and  _448
REMARK  174  A    between atoms: _448  and  _449
REMARK  175  A    between atoms: _454  and  _455
REMARK  176  A    between atoms: _457  and  _459
REMARK  177  A    between atoms: _459  and  _460
REMARK  178  A    between atoms: _459  and  _462
REMARK  179  A    between atoms: _462  and  _463
REMARK  180  A    between atoms: _466  and  _468
REMARK  181  A    between atoms: _468  and  _469
REMARK  182  A    between atoms: _468  and  _471
REMARK  183  A    between atoms: _471  and  _472
REMARK  184  A    between atoms: _472  and  _473
REMARK  185  A    between atoms: _473  and  _474
REMARK  186  A    between atoms: _483  and  _485
REMARK  187  A    between atoms: _485  and  _486
REMARK  188  A    between atoms: _485  and  _488
REMARK  189  A    between atoms: _488  and  _489
REMARK  190  A    between atoms: _492  and  _494
REMARK  191  A    between atoms: _494  and  _495
REMARK  192  A    between atoms: _494  and  _497
REMARK  193  A    between atoms: _497  and  _498
REMARK  194  A    between atoms: _501  and  _503
REMARK  195  A    between atoms: _503  and  _504
REMARK  196  A    between atoms: _503  and  _506
REMARK  197  A    between atoms: _506  and  _507
REMARK  198  A    between atoms: _507  and  _508
REMARK  199  A    between atoms: _508  and  _509
REMARK  200  A    between atoms: _518  and  _520
REMARK  201  A    between atoms: _520  and  _521
REMARK  202  A    between atoms: _520  and  _523
REMARK  203  A    between atoms: _523  and  _524
REMARK  204  A    between atoms: _524  and  _525
REMARK  205  A    between atoms: _530  and  _532
REMARK  206  A    between atoms: _532  and  _533
REMARK  207  A    between atoms: _532  and  _535
REMARK  208  A    between atoms: _535  and  _536
REMARK  209  A    between atoms: _536  and  _537
REMARK  210  A    between atoms: _537  and  _538
REMARK  211  A    between atoms: _547  and  _549
REMARK  212  A    between atoms: _549  and  _550
REMARK  213  A    between atoms: _553  and  _555
REMARK  214  A    between atoms: _555  and  _556
REMARK  215  A    between atoms: _558  and  _560
REMARK  216  A    between atoms: _560  and  _561
REMARK  217  A    between atoms: _560  and  _563
REMARK  218  A    between atoms: _563  and  _564
REMARK  219  A    between atoms: _567  and  _569
REMARK  220  A    between atoms: _569  and  _570
REMARK  221  A    between atoms: _569  and  _572
REMARK  222  A    between atoms: _572  and  _573
REMARK  223  A    between atoms: _573  and  _574
REMARK  224  A    between atoms: _574  and  _575
REMARK  225  A    between atoms: _584  and  _586
REMARK  226  A    between atoms: _586  and  _587
REMARK  227  A    between atoms: _586  and  _589
REMARK  228  A    between atoms: _592  and  _594
REMARK  229  A    between atoms: _594  and  _595
REMARK  230  A    between atoms: _594  and  _597
REMARK  231  A    between atoms: _597  and  _598
REMARK  232  A    between atoms: _603  and  _604
REMARK  233  A    between atoms: _606  and  _608
REMARK  234  A    between atoms: _608  and  _609
REMARK  235  A    between atoms: _608  and  _611
REMARK  236  A    between atoms: _611  and  _612
REMARK  237  A    between atoms: _614  and  _616
REMARK  238  A    between atoms: _616  and  _617
REMARK  239  A    between atoms: _616  and  _619
REMARK  240  A    between atoms: _619  and  _620
REMARK  241  A    between atoms: _625  and  _627
REMARK  242  A    between atoms: _627  and  _628
REMARK  243  A    between atoms: _627  and  _630
REMARK  244  A    between atoms: _630  and  _631
REMARK  245  A    between atoms: _631  and  _632
REMARK  246  A    between atoms: _635  and  _637
REMARK  247  A    between atoms: _637  and  _638
REMARK  248  A    between atoms: _637  and  _640
REMARK  249  A    between atoms: _640  and  _641
REMARK  250  A    between atoms: _646  and  _647
REMARK  251  A    between atoms: _649  and  _651
REMARK  252  A    between atoms: _651  and  _652
REMARK  253  A    between atoms: _655  and  _657
REMARK  254  A    between atoms: _657  and  _658
REMARK  255  A    between atoms: _657  and  _660
REMARK  256  A    between atoms: _660  and  _661
REMARK  257  A    between atoms: _665  and  _666
REMARK  258  A    between atoms: _671  and  _673
REMARK  259  A    between atoms: _673  and  _674
REMARK  260  A    between atoms: _673  and  _676
REMARK  261  A    between atoms: _676  and  _677
REMARK  262  A    between atoms: _680  and  _682
REMARK  263  A    between atoms: _682  and  _683
REMARK  264  A    between atoms: _682  and  _685
REMARK  265  A    between atoms: _685  and  _686
REMARK  266  A    between atoms: _686  and  _687
REMARK  267  A    between atoms: _692  and  _694
REMARK  268  A    between atoms: _694  and  _695
REMARK  269  A    between atoms: _694  and  _697
REMARK  270  A    between atoms: _697  and  _698
REMARK  271  A    between atoms: _701  and  _703
REMARK  272  A    between atoms: _703  and  _704
REMARK  273  A    between atoms: _703  and  _706
REMARK  274  A    between atoms: _706  and  _707
REMARK  275  A    between atoms: _710  and  _712
REMARK  276  A    between atoms: _712  and  _713
REMARK  277  A    between atoms: _712  and  _715
REMARK  278  A    between atoms: _715  and  _716
REMARK                            x       y       z     vdW  Elec       q    Type
REMARK                         _______ _______ _______ _____ _____    ______ ____
ROOT
ATOM      1  O   HOH     1      55.390   7.435 -14.556  0.00  0.00    +0.000 OA
ENDROOT
TORSDOF 0
