REMARK  Name = ../refined-set-2016/3f3t/3f3t_pocket.pdb
REMARK  251 active torsions:
REMARK  status: ('A' for Active; 'I' for Inactive)
REMARK    1  A    between atoms: _1  and  _3
REMARK    2  A    between atoms: _3  and  _4
REMARK    3  A    between atoms: _3  and  _6
REMARK    4  A    between atoms: _6  and  _7
REMARK    5  A    between atoms: _10  and  _12
REMARK    6  A    between atoms: _12  and  _13
REMARK    7  A    between atoms: _12  and  _15
REMARK    8  A    between atoms: _15  and  _16
REMARK    9  A    between atoms: _16  and  _17
REMARK   10  A    between atoms: _20  and  _22
REMARK   11  A    between atoms: _22  and  _23
REMARK   12  A    between atoms: _22  and  _25
REMARK   13  A    between atoms: _28  and  _30
REMARK   14  A    between atoms: _30  and  _31
REMARK   15  A    between atoms: _30  and  _33
REMARK   16  A    between atoms: _33  and  _34
REMARK   17  A    between atoms: _44  and  _46
REMARK   18  A    between atoms: _46  and  _47
REMARK   19  A    between atoms: _46  and  _49
REMARK   20  A    between atoms: _49  and  _50
REMARK   21  A    between atoms: _50  and  _51
REMARK   22  A    between atoms: _53  and  _55
REMARK   23  A    between atoms: _55  and  _56
REMARK   24  A    between atoms: _55  and  _58
REMARK   25  A    between atoms: _61  and  _63
REMARK   26  A    between atoms: _63  and  _64
REMARK   27  A    between atoms: _67  and  _69
REMARK   28  A    between atoms: _69  and  _70
REMARK   29  A    between atoms: _69  and  _72
REMARK   30  A    between atoms: _72  and  _73
REMARK   31  A    between atoms: _76  and  _78
REMARK   32  A    between atoms: _78  and  _79
REMARK   33  A    between atoms: _78  and  _81
REMARK   34  A    between atoms: _81  and  _82
REMARK   35  A    between atoms: _82  and  _83
REMARK   36  A    between atoms: _83  and  _84
REMARK   37  A    between atoms: _84  and  _85
REMARK   38  A    between atoms: _89  and  _91
REMARK   39  A    between atoms: _91  and  _92
REMARK   40  A    between atoms: _91  and  _94
REMARK   41  A    between atoms: _94  and  _95
REMARK   42  A    between atoms: _98  and  _100
REMARK   43  A    between atoms: _100  and  _101
REMARK   44  A    between atoms: _100  and  _103
REMARK   45  A    between atoms: _103  and  _104
REMARK   46  A    between atoms: _104  and  _105
REMARK   47  A    between atoms: _107  and  _109
REMARK   48  A    between atoms: _109  and  _110
REMARK   49  A    between atoms: _113  and  _115
REMARK   50  A    between atoms: _115  and  _116
REMARK   51  A    between atoms: _115  and  _118
REMARK   52  A    between atoms: _118  and  _119
REMARK   53  A    between atoms: _125  and  _127
REMARK   54  A    between atoms: _127  and  _128
REMARK   55  A    between atoms: _127  and  _130
REMARK   56  A    between atoms: _130  and  _131
REMARK   57  A    between atoms: _134  and  _136
REMARK   58  A    between atoms: _136  and  _137
REMARK   59  A    between atoms: _136  and  _139
REMARK   60  A    between atoms: _139  and  _140
REMARK   61  A    between atoms: _140  and  _141
REMARK   62  A    between atoms: _146  and  _148
REMARK   63  A    between atoms: _148  and  _149
REMARK   64  A    between atoms: _148  and  _151
REMARK   65  A    between atoms: _151  and  _152
REMARK   66  A    between atoms: _152  and  _153
REMARK   67  A    between atoms: _156  and  _158
REMARK   68  A    between atoms: _158  and  _159
REMARK   69  A    between atoms: _162  and  _164
REMARK   70  A    between atoms: _164  and  _165
REMARK   71  A    between atoms: _164  and  _167
REMARK   72  A    between atoms: _167  and  _168
REMARK   73  A    between atoms: _168  and  _169
REMARK   74  A    between atoms: _174  and  _176
REMARK   75  A    between atoms: _176  and  _177
REMARK   76  A    between atoms: _176  and  _179
REMARK   77  A    between atoms: _182  and  _184
REMARK   78  A    between atoms: _184  and  _185
REMARK   79  A    between atoms: _184  and  _187
REMARK   80  A    between atoms: _187  and  _188
REMARK   81  A    between atoms: _188  and  _189
REMARK   82  A    between atoms: _191  and  _193
REMARK   83  A    between atoms: _193  and  _194
REMARK   84  A    between atoms: _193  and  _196
REMARK   85  A    between atoms: _196  and  _197
REMARK   86  A    between atoms: _197  and  _198
REMARK   87  A    between atoms: _198  and  _199
REMARK   88  A    between atoms: _199  and  _200
REMARK   89  A    between atoms: _204  and  _206
REMARK   90  A    between atoms: _206  and  _207
REMARK   91  A    between atoms: _206  and  _209
REMARK   92  A    between atoms: _209  and  _210
REMARK   93  A    between atoms: _210  and  _211
REMARK   94  A    between atoms: _211  and  _212
REMARK   95  A    between atoms: _212  and  _213
REMARK   96  A    between atoms: _217  and  _219
REMARK   97  A    between atoms: _219  and  _220
REMARK   98  A    between atoms: _219  and  _222
REMARK   99  A    between atoms: _222  and  _223
REMARK  100  A    between atoms: _226  and  _228
REMARK  101  A    between atoms: _228  and  _229
REMARK  102  A    between atoms: _228  and  _231
REMARK  103  A    between atoms: _231  and  _232
REMARK  104  A    between atoms: _232  and  _233
REMARK  105  A    between atoms: _233  and  _234
REMARK  106  A    between atoms: _243  and  _245
REMARK  107  A    between atoms: _245  and  _246
REMARK  108  A    between atoms: _245  and  _248
REMARK  109  A    between atoms: _248  and  _249
REMARK  110  A    between atoms: _254  and  _256
REMARK  111  A    between atoms: _256  and  _257
REMARK  112  A    between atoms: _256  and  _259
REMARK  113  A    between atoms: _259  and  _260
REMARK  114  A    between atoms: _260  and  _261
REMARK  115  A    between atoms: _261  and  _262
REMARK  116  A    between atoms: _262  and  _263
REMARK  117  A    between atoms: _267  and  _269
REMARK  118  A    between atoms: _269  and  _270
REMARK  119  A    between atoms: _269  and  _272
REMARK  120  A    between atoms: _272  and  _273
REMARK  121  A    between atoms: _276  and  _278
REMARK  122  A    between atoms: _278  and  _279
REMARK  123  A    between atoms: _278  and  _281
REMARK  124  A    between atoms: _284  and  _286
REMARK  125  A    between atoms: _286  and  _287
REMARK  126  A    between atoms: _286  and  _289
REMARK  127  A    between atoms: _289  and  _290
REMARK  128  A    between atoms: _290  and  _291
REMARK  129  A    between atoms: _296  and  _298
REMARK  130  A    between atoms: _298  and  _299
REMARK  131  A    between atoms: _298  and  _301
REMARK  132  A    between atoms: _301  and  _302
REMARK  133  A    between atoms: _305  and  _307
REMARK  134  A    between atoms: _307  and  _308
REMARK  135  A    between atoms: _307  and  _310
REMARK  136  A    between atoms: _310  and  _311
REMARK  137  A    between atoms: _316  and  _317
REMARK  138  A    between atoms: _319  and  _321
REMARK  139  A    between atoms: _321  and  _322
REMARK  140  A    between atoms: _325  and  _327
REMARK  141  A    between atoms: _327  and  _328
REMARK  142  A    between atoms: _327  and  _330
REMARK  143  A    between atoms: _330  and  _331
REMARK  144  A    between atoms: _336  and  _337
REMARK  145  A    between atoms: _339  and  _341
REMARK  146  A    between atoms: _341  and  _342
REMARK  147  A    between atoms: _341  and  _344
REMARK  148  A    between atoms: _344  and  _345
REMARK  149  A    between atoms: _348  and  _350
REMARK  150  A    between atoms: _350  and  _351
REMARK  151  A    between atoms: _350  and  _353
REMARK  152  A    between atoms: _356  and  _358
REMARK  153  A    between atoms: _358  and  _359
REMARK  154  A    between atoms: _358  and  _361
REMARK  155  A    between atoms: _361  and  _362
REMARK  156  A    between atoms: _365  and  _367
REMARK  157  A    between atoms: _367  and  _368
REMARK  158  A    between atoms: _367  and  _370
REMARK  159  A    between atoms: _370  and  _371
REMARK  160  A    between atoms: _371  and  _372
REMARK  161  A    between atoms: _375  and  _377
REMARK  162  A    between atoms: _377  and  _378
REMARK  163  A    between atoms: _377  and  _380
REMARK  164  A    between atoms: _380  and  _381
REMARK  165  A    between atoms: _386  and  _387
REMARK  166  A    between atoms: _389  and  _391
REMARK  167  A    between atoms: _391  and  _392
REMARK  168  A    between atoms: _391  and  _394
REMARK  169  A    between atoms: _394  and  _395
REMARK  170  A    between atoms: _395  and  _396
REMARK  171  A    between atoms: _398  and  _400
REMARK  172  A    between atoms: _400  and  _401
REMARK  173  A    between atoms: _403  and  _405
REMARK  174  A    between atoms: _405  and  _406
REMARK  175  A    between atoms: _405  and  _408
REMARK  176  A    between atoms: _408  and  _409
REMARK  177  A    between atoms: _409  and  _410
REMARK  178  A    between atoms: _412  and  _414
REMARK  179  A    between atoms: _414  and  _415
REMARK  180  A    between atoms: _414  and  _417
REMARK  181  A    between atoms: _417  and  _418
REMARK  182  A    between atoms: _423  and  _424
REMARK  183  A    between atoms: _426  and  _428
REMARK  184  A    between atoms: _428  and  _429
REMARK  185  A    between atoms: _428  and  _431
REMARK  186  A    between atoms: _434  and  _436
REMARK  187  A    between atoms: _436  and  _437
REMARK  188  A    between atoms: _436  and  _439
REMARK  189  A    between atoms: _439  and  _440
REMARK  190  A    between atoms: _445  and  _446
REMARK  191  A    between atoms: _448  and  _450
REMARK  192  A    between atoms: _450  and  _451
REMARK  193  A    between atoms: _450  and  _453
REMARK  194  A    between atoms: _456  and  _458
REMARK  195  A    between atoms: _458  and  _459
REMARK  196  A    between atoms: _458  and  _461
REMARK  197  A    between atoms: _461  and  _462
REMARK  198  A    between atoms: _467  and  _469
REMARK  199  A    between atoms: _469  and  _470
REMARK  200  A    between atoms: _469  and  _472
REMARK  201  A    between atoms: _472  and  _473
REMARK  202  A    between atoms: _473  and  _474
REMARK  203  A    between atoms: _474  and  _475
REMARK  204  A    between atoms: _484  and  _486
REMARK  205  A    between atoms: _486  and  _487
REMARK  206  A    between atoms: _486  and  _489
REMARK  207  A    between atoms: _489  and  _490
REMARK  208  A    between atoms: _493  and  _495
REMARK  209  A    between atoms: _495  and  _496
REMARK  210  A    between atoms: _495  and  _498
REMARK  211  A    between atoms: _498  and  _499
REMARK  212  A    between atoms: _502  and  _504
REMARK  213  A    between atoms: _504  and  _505
REMARK  214  A    between atoms: _508  and  _510
REMARK  215  A    between atoms: _510  and  _511
REMARK  216  A    between atoms: _510  and  _513
REMARK  217  A    between atoms: _513  and  _514
REMARK  218  A    between atoms: _519  and  _521
REMARK  219  A    between atoms: _521  and  _522
REMARK  220  A    between atoms: _521  and  _524
REMARK  221  A    between atoms: _524  and  _525
REMARK  222  A    between atoms: _528  and  _530
REMARK  223  A    between atoms: _530  and  _531
REMARK  224  A    between atoms: _530  and  _533
REMARK  225  A    between atoms: _533  and  _534
REMARK  226  A    between atoms: _537  and  _539
REMARK  227  A    between atoms: _539  and  _540
REMARK  228  A    between atoms: _539  and  _542
REMARK  229  A    between atoms: _542  and  _543
REMARK  230  A    between atoms: _543  and  _544
REMARK  231  A    between atoms: _544  and  _545
REMARK  232  A    between atoms: _545  and  _546
REMARK  233  A    between atoms: _550  and  _552
REMARK  234  A    between atoms: _552  and  _553
REMARK  235  A    between atoms: _552  and  _555
REMARK  236  A    between atoms: _558  and  _560
REMARK  237  A    between atoms: _560  and  _561
REMARK  238  A    between atoms: _564  and  _566
REMARK  239  A    between atoms: _566  and  _567
REMARK  240  A    between atoms: _566  and  _569
REMARK  241  A    between atoms: _569  and  _570
REMARK  242  A    between atoms: _573  and  _575
REMARK  243  A    between atoms: _575  and  _576
REMARK  244  A    between atoms: _575  and  _578
REMARK  245  A    between atoms: _578  and  _579
REMARK  246  A    between atoms: _585  and  _587
REMARK  247  A    between atoms: _587  and  _588
REMARK  248  A    between atoms: _590  and  _592
REMARK  249  A    between atoms: _592  and  _593
REMARK  250  A    between atoms: _592  and  _595
REMARK  251  A    between atoms: _595  and  _596
REMARK                            x       y       z     vdW  Elec       q    Type
REMARK                         _______ _______ _______ _____ _____    ______ ____
ROOT
ATOM      1  CA  LEU A   1     -11.682  44.130  -6.789  0.00  0.00    +0.133 C 
ENDROOT
BRANCH   1   2
ATOM      2  N   LEU A   1     -11.812  44.786  -8.095  0.00  0.00    -0.239 NA
ATOM      3  H   LEU A   1     -11.195  44.482  -8.875  0.00  0.00    +0.142 HD
ENDBRANCH   1   2
BRANCH   1   4
ATOM      4  C   LEU A   1     -10.455  44.550  -5.977  0.00  0.00    +0.224 C 
ATOM      5  O   LEU A   1     -10.493  44.580  -4.742  0.00  0.00    -0.287 OA
ENDBRANCH   1   4
BRANCH   1   6
ATOM      6  CB  LEU A   1     -11.638  42.605  -6.961  0.00  0.00    +0.025 C 
BRANCH   6   7
ATOM      7  CG  LEU A   1     -12.942  41.876  -7.275  0.00  0.00    +0.002 C 
ATOM      8  CD2 LEU A   1     -14.018  42.183  -6.227  0.00  0.00    +0.000 C 
ATOM      9  CD1 LEU A   1     -12.667  40.393  -7.364  0.00  0.00    +0.000 C 
ENDBRANCH   6   7
ENDBRANCH   1   6
TORSDOF 4
REMARK  Name = ../refined-set-2016/3f3t/3f3t_pocket.pdb
REMARK  251 active torsions:
REMARK  status: ('A' for Active; 'I' for Inactive)
REMARK    1  A    between atoms: _1  and  _3
REMARK    2  A    between atoms: _3  and  _4
REMARK    3  A    between atoms: _3  and  _6
REMARK    4  A    between atoms: _6  and  _7
REMARK    5  A    between atoms: _10  and  _12
REMARK    6  A    between atoms: _12  and  _13
REMARK    7  A    between atoms: _12  and  _15
REMARK    8  A    between atoms: _15  and  _16
REMARK    9  A    between atoms: _16  and  _17
REMARK   10  A    between atoms: _20  and  _22
REMARK   11  A    between atoms: _22  and  _23
REMARK   12  A    between atoms: _22  and  _25
REMARK   13  A    between atoms: _28  and  _30
REMARK   14  A    between atoms: _30  and  _31
REMARK   15  A    between atoms: _30  and  _33
REMARK   16  A    between atoms: _33  and  _34
REMARK   17  A    between atoms: _44  and  _46
REMARK   18  A    between atoms: _46  and  _47
REMARK   19  A    between atoms: _46  and  _49
REMARK   20  A    between atoms: _49  and  _50
REMARK   21  A    between atoms: _50  and  _51
REMARK   22  A    between atoms: _53  and  _55
REMARK   23  A    between atoms: _55  and  _56
REMARK   24  A    between atoms: _55  and  _58
REMARK   25  A    between atoms: _61  and  _63
REMARK   26  A    between atoms: _63  and  _64
REMARK   27  A    between atoms: _67  and  _69
REMARK   28  A    between atoms: _69  and  _70
REMARK   29  A    between atoms: _69  and  _72
REMARK   30  A    between atoms: _72  and  _73
REMARK   31  A    between atoms: _76  and  _78
REMARK   32  A    between atoms: _78  and  _79
REMARK   33  A    between atoms: _78  and  _81
REMARK   34  A    between atoms: _81  and  _82
REMARK   35  A    between atoms: _82  and  _83
REMARK   36  A    between atoms: _83  and  _84
REMARK   37  A    between atoms: _84  and  _85
REMARK   38  A    between atoms: _89  and  _91
REMARK   39  A    between atoms: _91  and  _92
REMARK   40  A    between atoms: _91  and  _94
REMARK   41  A    between atoms: _94  and  _95
REMARK   42  A    between atoms: _98  and  _100
REMARK   43  A    between atoms: _100  and  _101
REMARK   44  A    between atoms: _100  and  _103
REMARK   45  A    between atoms: _103  and  _104
REMARK   46  A    between atoms: _104  and  _105
REMARK   47  A    between atoms: _107  and  _109
REMARK   48  A    between atoms: _109  and  _110
REMARK   49  A    between atoms: _113  and  _115
REMARK   50  A    between atoms: _115  and  _116
REMARK   51  A    between atoms: _115  and  _118
REMARK   52  A    between atoms: _118  and  _119
REMARK   53  A    between atoms: _125  and  _127
REMARK   54  A    between atoms: _127  and  _128
REMARK   55  A    between atoms: _127  and  _130
REMARK   56  A    between atoms: _130  and  _131
REMARK   57  A    between atoms: _134  and  _136
REMARK   58  A    between atoms: _136  and  _137
REMARK   59  A    between atoms: _136  and  _139
REMARK   60  A    between atoms: _139  and  _140
REMARK   61  A    between atoms: _140  and  _141
REMARK   62  A    between atoms: _146  and  _148
REMARK   63  A    between atoms: _148  and  _149
REMARK   64  A    between atoms: _148  and  _151
REMARK   65  A    between atoms: _151  and  _152
REMARK   66  A    between atoms: _152  and  _153
REMARK   67  A    between atoms: _156  and  _158
REMARK   68  A    between atoms: _158  and  _159
REMARK   69  A    between atoms: _162  and  _164
REMARK   70  A    between atoms: _164  and  _165
REMARK   71  A    between atoms: _164  and  _167
REMARK   72  A    between atoms: _167  and  _168
REMARK   73  A    between atoms: _168  and  _169
REMARK   74  A    between atoms: _174  and  _176
REMARK   75  A    between atoms: _176  and  _177
REMARK   76  A    between atoms: _176  and  _179
REMARK   77  A    between atoms: _182  and  _184
REMARK   78  A    between atoms: _184  and  _185
REMARK   79  A    between atoms: _184  and  _187
REMARK   80  A    between atoms: _187  and  _188
REMARK   81  A    between atoms: _188  and  _189
REMARK   82  A    between atoms: _191  and  _193
REMARK   83  A    between atoms: _193  and  _194
REMARK   84  A    between atoms: _193  and  _196
REMARK   85  A    between atoms: _196  and  _197
REMARK   86  A    between atoms: _197  and  _198
REMARK   87  A    between atoms: _198  and  _199
REMARK   88  A    between atoms: _199  and  _200
REMARK   89  A    between atoms: _204  and  _206
REMARK   90  A    between atoms: _206  and  _207
REMARK   91  A    between atoms: _206  and  _209
REMARK   92  A    between atoms: _209  and  _210
REMARK   93  A    between atoms: _210  and  _211
REMARK   94  A    between atoms: _211  and  _212
REMARK   95  A    between atoms: _212  and  _213
REMARK   96  A    between atoms: _217  and  _219
REMARK   97  A    between atoms: _219  and  _220
REMARK   98  A    between atoms: _219  and  _222
REMARK   99  A    between atoms: _222  and  _223
REMARK  100  A    between atoms: _226  and  _228
REMARK  101  A    between atoms: _228  and  _229
REMARK  102  A    between atoms: _228  and  _231
REMARK  103  A    between atoms: _231  and  _232
REMARK  104  A    between atoms: _232  and  _233
REMARK  105  A    between atoms: _233  and  _234
REMARK  106  A    between atoms: _243  and  _245
REMARK  107  A    between atoms: _245  and  _246
REMARK  108  A    between atoms: _245  and  _248
REMARK  109  A    between atoms: _248  and  _249
REMARK  110  A    between atoms: _254  and  _256
REMARK  111  A    between atoms: _256  and  _257
REMARK  112  A    between atoms: _256  and  _259
REMARK  113  A    between atoms: _259  and  _260
REMARK  114  A    between atoms: _260  and  _261
REMARK  115  A    between atoms: _261  and  _262
REMARK  116  A    between atoms: _262  and  _263
REMARK  117  A    between atoms: _267  and  _269
REMARK  118  A    between atoms: _269  and  _270
REMARK  119  A    between atoms: _269  and  _272
REMARK  120  A    between atoms: _272  and  _273
REMARK  121  A    between atoms: _276  and  _278
REMARK  122  A    between atoms: _278  and  _279
REMARK  123  A    between atoms: _278  and  _281
REMARK  124  A    between atoms: _284  and  _286
REMARK  125  A    between atoms: _286  and  _287
REMARK  126  A    between atoms: _286  and  _289
REMARK  127  A    between atoms: _289  and  _290
REMARK  128  A    between atoms: _290  and  _291
REMARK  129  A    between atoms: _296  and  _298
REMARK  130  A    between atoms: _298  and  _299
REMARK  131  A    between atoms: _298  and  _301
REMARK  132  A    between atoms: _301  and  _302
REMARK  133  A    between atoms: _305  and  _307
REMARK  134  A    between atoms: _307  and  _308
REMARK  135  A    between atoms: _307  and  _310
REMARK  136  A    between atoms: _310  and  _311
REMARK  137  A    between atoms: _316  and  _317
REMARK  138  A    between atoms: _319  and  _321
REMARK  139  A    between atoms: _321  and  _322
REMARK  140  A    between atoms: _325  and  _327
REMARK  141  A    between atoms: _327  and  _328
REMARK  142  A    between atoms: _327  and  _330
REMARK  143  A    between atoms: _330  and  _331
REMARK  144  A    between atoms: _336  and  _337
REMARK  145  A    between atoms: _339  and  _341
REMARK  146  A    between atoms: _341  and  _342
REMARK  147  A    between atoms: _341  and  _344
REMARK  148  A    between atoms: _344  and  _345
REMARK  149  A    between atoms: _348  and  _350
REMARK  150  A    between atoms: _350  and  _351
REMARK  151  A    between atoms: _350  and  _353
REMARK  152  A    between atoms: _356  and  _358
REMARK  153  A    between atoms: _358  and  _359
REMARK  154  A    between atoms: _358  and  _361
REMARK  155  A    between atoms: _361  and  _362
REMARK  156  A    between atoms: _365  and  _367
REMARK  157  A    between atoms: _367  and  _368
REMARK  158  A    between atoms: _367  and  _370
REMARK  159  A    between atoms: _370  and  _371
REMARK  160  A    between atoms: _371  and  _372
REMARK  161  A    between atoms: _375  and  _377
REMARK  162  A    between atoms: _377  and  _378
REMARK  163  A    between atoms: _377  and  _380
REMARK  164  A    between atoms: _380  and  _381
REMARK  165  A    between atoms: _386  and  _387
REMARK  166  A    between atoms: _389  and  _391
REMARK  167  A    between atoms: _391  and  _392
REMARK  168  A    between atoms: _391  and  _394
REMARK  169  A    between atoms: _394  and  _395
REMARK  170  A    between atoms: _395  and  _396
REMARK  171  A    between atoms: _398  and  _400
REMARK  172  A    between atoms: _400  and  _401
REMARK  173  A    between atoms: _403  and  _405
REMARK  174  A    between atoms: _405  and  _406
REMARK  175  A    between atoms: _405  and  _408
REMARK  176  A    between atoms: _408  and  _409
REMARK  177  A    between atoms: _409  and  _410
REMARK  178  A    between atoms: _412  and  _414
REMARK  179  A    between atoms: _414  and  _415
REMARK  180  A    between atoms: _414  and  _417
REMARK  181  A    between atoms: _417  and  _418
REMARK  182  A    between atoms: _423  and  _424
REMARK  183  A    between atoms: _426  and  _428
REMARK  184  A    between atoms: _428  and  _429
REMARK  185  A    between atoms: _428  and  _431
REMARK  186  A    between atoms: _434  and  _436
REMARK  187  A    between atoms: _436  and  _437
REMARK  188  A    between atoms: _436  and  _439
REMARK  189  A    between atoms: _439  and  _440
REMARK  190  A    between atoms: _445  and  _446
REMARK  191  A    between atoms: _448  and  _450
REMARK  192  A    between atoms: _450  and  _451
REMARK  193  A    between atoms: _450  and  _453
REMARK  194  A    between atoms: _456  and  _458
REMARK  195  A    between atoms: _458  and  _459
REMARK  196  A    between atoms: _458  and  _461
REMARK  197  A    between atoms: _461  and  _462
REMARK  198  A    between atoms: _467  and  _469
REMARK  199  A    between atoms: _469  and  _470
REMARK  200  A    between atoms: _469  and  _472
REMARK  201  A    between atoms: _472  and  _473
REMARK  202  A    between atoms: _473  and  _474
REMARK  203  A    between atoms: _474  and  _475
REMARK  204  A    between atoms: _484  and  _486
REMARK  205  A    between atoms: _486  and  _487
REMARK  206  A    between atoms: _486  and  _489
REMARK  207  A    between atoms: _489  and  _490
REMARK  208  A    between atoms: _493  and  _495
REMARK  209  A    between atoms: _495  and  _496
REMARK  210  A    between atoms: _495  and  _498
REMARK  211  A    between atoms: _498  and  _499
REMARK  212  A    between atoms: _502  and  _504
REMARK  213  A    between atoms: _504  and  _505
REMARK  214  A    between atoms: _508  and  _510
REMARK  215  A    between atoms: _510  and  _511
REMARK  216  A    between atoms: _510  and  _513
REMARK  217  A    between atoms: _513  and  _514
REMARK  218  A    between atoms: _519  and  _521
REMARK  219  A    between atoms: _521  and  _522
REMARK  220  A    between atoms: _521  and  _524
REMARK  221  A    between atoms: _524  and  _525
REMARK  222  A    between atoms: _528  and  _530
REMARK  223  A    between atoms: _530  and  _531
REMARK  224  A    between atoms: _530  and  _533
REMARK  225  A    between atoms: _533  and  _534
REMARK  226  A    between atoms: _537  and  _539
REMARK  227  A    between atoms: _539  and  _540
REMARK  228  A    between atoms: _539  and  _542
REMARK  229  A    between atoms: _542  and  _543
REMARK  230  A    between atoms: _543  and  _544
REMARK  231  A    between atoms: _544  and  _545
REMARK  232  A    between atoms: _545  and  _546
REMARK  233  A    between atoms: _550  and  _552
REMARK  234  A    between atoms: _552  and  _553
REMARK  235  A    between atoms: _552  and  _555
REMARK  236  A    between atoms: _558  and  _560
REMARK  237  A    between atoms: _560  and  _561
REMARK  238  A    between atoms: _564  and  _566
REMARK  239  A    between atoms: _566  and  _567
REMARK  240  A    between atoms: _566  and  _569
REMARK  241  A    between atoms: _569  and  _570
REMARK  242  A    between atoms: _573  and  _575
REMARK  243  A    between atoms: _575  and  _576
REMARK  244  A    between atoms: _575  and  _578
REMARK  245  A    between atoms: _578  and  _579
REMARK  246  A    between atoms: _585  and  _587
REMARK  247  A    between atoms: _587  and  _588
REMARK  248  A    between atoms: _590  and  _592
REMARK  249  A    between atoms: _592  and  _593
REMARK  250  A    between atoms: _592  and  _595
REMARK  251  A    between atoms: _595  and  _596
REMARK                            x       y       z     vdW  Elec       q    Type
REMARK                         _______ _______ _______ _____ _____    ______ ____
ROOT
ATOM      1  CA  TRP A   3     -11.667  42.253 -11.429  0.00  0.00    +0.153 C 
ENDROOT
BRANCH   1   4
ATOM      2  C   VAL A   2      -9.474  42.540 -10.383  0.00  0.00    +0.241 C 
ATOM      3  O   VAL A   2      -9.888  43.365  -9.565  0.00  0.00    -0.273 OA
ATOM      4  N   TRP A   3     -10.239  41.964 -11.306  0.00  0.00    -0.297 N 
ATOM      5  H   TRP A   3      -9.806  41.284 -11.963  0.00  0.00    +0.150 HD
BRANCH   2   6
ATOM      6  CA  VAL A   2      -8.021  42.138 -10.373  0.00  0.00    +0.148 C 
BRANCH   6   8
ATOM      7  C   GLU A   1      -6.212  43.486 -11.306  0.00  0.00    +0.238 C 
ATOM      8  N   VAL A   2      -7.274  43.366 -10.522  0.00  0.00    -0.297 N 
ATOM      9  H   VAL A   2      -7.586  44.200  -9.985  0.00  0.00    +0.150 HD
ATOM     10  O   GLU A   1      -5.734  42.553 -11.966  0.00  0.00    -0.274 OA
BRANCH   7  11
ATOM     11  CA  GLU A   1      -5.643  44.881 -11.371  0.00  0.00    +0.145 C 
BRANCH  11  12
ATOM     12  N   GLU A   1      -4.332  44.906 -11.991  0.00  0.00    -0.238 NA
ATOM     13  H   GLU A   1      -4.229  44.476 -12.932  0.00  0.00    +0.142 HD
ENDBRANCH  11  12
BRANCH  11  14
ATOM     14  CB  GLU A   1      -6.622  45.702 -12.200  0.00  0.00    +0.038 C 
BRANCH  14  15
ATOM     15  CG  GLU A   1      -6.479  47.199 -12.102  0.00  0.00    +0.116 C 
BRANCH  15  16
ATOM     16  CD  GLU A   1      -7.408  47.901 -13.072  0.00  0.00    +0.365 C 
ATOM     17  OE2 GLU A   1      -8.499  48.360 -12.653  0.00  0.00    -0.246 OA
ATOM     18  OE1 GLU A   1      -7.043  47.979 -14.262  0.00  0.00    -0.246 OA
ENDBRANCH  15  16
ENDBRANCH  14  15
ENDBRANCH  11  14
ENDBRANCH   7  11
ENDBRANCH   6   8
BRANCH   6  19
ATOM     19  CB  VAL A   2      -7.653  41.404  -9.047  0.00  0.00    +0.027 C 
ATOM     20  CG2 VAL A   2      -8.770  40.443  -8.620  0.00  0.00    +0.002 C 
ATOM     21  CG1 VAL A   2      -6.324  40.645  -9.207  0.00  0.00    +0.002 C 
ENDBRANCH   6  19
ENDBRANCH   2   6
ENDBRANCH   1   4
BRANCH   1  22
ATOM     22  C   TRP A   3     -12.513  40.999 -11.212  0.00  0.00    +0.241 C 
ATOM     23  N   MET A   4     -13.713  41.180 -10.669  0.00  0.00    -0.298 N 
ATOM     24  H   MET A   4     -13.907  42.066 -10.159  0.00  0.00    +0.150 HD
ATOM     25  O   TRP A   3     -12.096  39.893 -11.540  0.00  0.00    -0.273 OA
BRANCH  23  26
ATOM     26  CA  MET A   4     -14.774  40.166 -10.767  0.00  0.00    +0.138 C 
BRANCH  26  27
ATOM     27  C   MET A   4     -15.359  40.295 -12.161  0.00  0.00    +0.227 C 
ATOM     28  O   MET A   4     -15.512  41.408 -12.674  0.00  0.00    -0.286 OA
ENDBRANCH  26  27
BRANCH  26  29
ATOM     29  CB  MET A   4     -15.858  40.404  -9.706  0.00  0.00    +0.039 C 
BRANCH  29  30
ATOM     30  CG  MET A   4     -17.001  39.381  -9.681  0.00  0.00    +0.060 C 
BRANCH  30  31
ATOM     31  SD  MET A   4     -18.430  39.765 -10.712  0.00  0.00    -0.139 S 
ATOM     32  CE  MET A   4     -19.086  41.239  -9.915  0.00  0.00    +0.069 C 
ENDBRANCH  30  31
ENDBRANCH  29  30
ENDBRANCH  26  29
ENDBRANCH  23  26
ENDBRANCH   1  22
BRANCH   1  33
ATOM     33  CB  TRP A   3     -11.988  42.821 -12.825  0.00  0.00    +0.057 C 
BRANCH  33  34
ATOM     34  CG  TRP A   3     -11.484  44.213 -13.101  0.00  0.00    -0.002 A 
ATOM     35  CD1 TRP A   3     -10.183  44.625 -13.126  0.00  0.00    +0.068 A 
ATOM     36  NE1 TRP A   3     -10.109  45.974 -13.429  0.00  0.00    -0.352 N 
ATOM     37  HE1 TRP A   3      -9.234  46.532 -13.497  0.00  0.00    +0.166 HD
ATOM     38  CE2 TRP A   3     -11.377  46.453 -13.624  0.00  0.00    +0.056 A 
ATOM     39  CZ2 TRP A   3     -11.811  47.745 -13.942  0.00  0.00    +0.017 A 
ATOM     40  CH2 TRP A   3     -13.165  47.953 -14.072  0.00  0.00    +0.001 A 
ATOM     41  CZ3 TRP A   3     -14.085  46.910 -13.895  0.00  0.00    +0.000 A 
ATOM     42  CE3 TRP A   3     -13.648  45.606 -13.570  0.00  0.00    +0.001 A 
ATOM     43  CD2 TRP A   3     -12.274  45.374 -13.427  0.00  0.00    +0.013 A 
ENDBRANCH  33  34
ENDBRANCH   1  33
TORSDOF 17
REMARK  Name = ../refined-set-2016/3f3t/3f3t_pocket.pdb
REMARK  251 active torsions:
REMARK  status: ('A' for Active; 'I' for Inactive)
REMARK    1  A    between atoms: _1  and  _3
REMARK    2  A    between atoms: _3  and  _4
REMARK    3  A    between atoms: _3  and  _6
REMARK    4  A    between atoms: _6  and  _7
REMARK    5  A    between atoms: _10  and  _12
REMARK    6  A    between atoms: _12  and  _13
REMARK    7  A    between atoms: _12  and  _15
REMARK    8  A    between atoms: _15  and  _16
REMARK    9  A    between atoms: _16  and  _17
REMARK   10  A    between atoms: _20  and  _22
REMARK   11  A    between atoms: _22  and  _23
REMARK   12  A    between atoms: _22  and  _25
REMARK   13  A    between atoms: _28  and  _30
REMARK   14  A    between atoms: _30  and  _31
REMARK   15  A    between atoms: _30  and  _33
REMARK   16  A    between atoms: _33  and  _34
REMARK   17  A    between atoms: _44  and  _46
REMARK   18  A    between atoms: _46  and  _47
REMARK   19  A    between atoms: _46  and  _49
REMARK   20  A    between atoms: _49  and  _50
REMARK   21  A    between atoms: _50  and  _51
REMARK   22  A    between atoms: _53  and  _55
REMARK   23  A    between atoms: _55  and  _56
REMARK   24  A    between atoms: _55  and  _58
REMARK   25  A    between atoms: _61  and  _63
REMARK   26  A    between atoms: _63  and  _64
REMARK   27  A    between atoms: _67  and  _69
REMARK   28  A    between atoms: _69  and  _70
REMARK   29  A    between atoms: _69  and  _72
REMARK   30  A    between atoms: _72  and  _73
REMARK   31  A    between atoms: _76  and  _78
REMARK   32  A    between atoms: _78  and  _79
REMARK   33  A    between atoms: _78  and  _81
REMARK   34  A    between atoms: _81  and  _82
REMARK   35  A    between atoms: _82  and  _83
REMARK   36  A    between atoms: _83  and  _84
REMARK   37  A    between atoms: _84  and  _85
REMARK   38  A    between atoms: _89  and  _91
REMARK   39  A    between atoms: _91  and  _92
REMARK   40  A    between atoms: _91  and  _94
REMARK   41  A    between atoms: _94  and  _95
REMARK   42  A    between atoms: _98  and  _100
REMARK   43  A    between atoms: _100  and  _101
REMARK   44  A    between atoms: _100  and  _103
REMARK   45  A    between atoms: _103  and  _104
REMARK   46  A    between atoms: _104  and  _105
REMARK   47  A    between atoms: _107  and  _109
REMARK   48  A    between atoms: _109  and  _110
REMARK   49  A    between atoms: _113  and  _115
REMARK   50  A    between atoms: _115  and  _116
REMARK   51  A    between atoms: _115  and  _118
REMARK   52  A    between atoms: _118  and  _119
REMARK   53  A    between atoms: _125  and  _127
REMARK   54  A    between atoms: _127  and  _128
REMARK   55  A    between atoms: _127  and  _130
REMARK   56  A    between atoms: _130  and  _131
REMARK   57  A    between atoms: _134  and  _136
REMARK   58  A    between atoms: _136  and  _137
REMARK   59  A    between atoms: _136  and  _139
REMARK   60  A    between atoms: _139  and  _140
REMARK   61  A    between atoms: _140  and  _141
REMARK   62  A    between atoms: _146  and  _148
REMARK   63  A    between atoms: _148  and  _149
REMARK   64  A    between atoms: _148  and  _151
REMARK   65  A    between atoms: _151  and  _152
REMARK   66  A    between atoms: _152  and  _153
REMARK   67  A    between atoms: _156  and  _158
REMARK   68  A    between atoms: _158  and  _159
REMARK   69  A    between atoms: _162  and  _164
REMARK   70  A    between atoms: _164  and  _165
REMARK   71  A    between atoms: _164  and  _167
REMARK   72  A    between atoms: _167  and  _168
REMARK   73  A    between atoms: _168  and  _169
REMARK   74  A    between atoms: _174  and  _176
REMARK   75  A    between atoms: _176  and  _177
REMARK   76  A    between atoms: _176  and  _179
REMARK   77  A    between atoms: _182  and  _184
REMARK   78  A    between atoms: _184  and  _185
REMARK   79  A    between atoms: _184  and  _187
REMARK   80  A    between atoms: _187  and  _188
REMARK   81  A    between atoms: _188  and  _189
REMARK   82  A    between atoms: _191  and  _193
REMARK   83  A    between atoms: _193  and  _194
REMARK   84  A    between atoms: _193  and  _196
REMARK   85  A    between atoms: _196  and  _197
REMARK   86  A    between atoms: _197  and  _198
REMARK   87  A    between atoms: _198  and  _199
REMARK   88  A    between atoms: _199  and  _200
REMARK   89  A    between atoms: _204  and  _206
REMARK   90  A    between atoms: _206  and  _207
REMARK   91  A    between atoms: _206  and  _209
REMARK   92  A    between atoms: _209  and  _210
REMARK   93  A    between atoms: _210  and  _211
REMARK   94  A    between atoms: _211  and  _212
REMARK   95  A    between atoms: _212  and  _213
REMARK   96  A    between atoms: _217  and  _219
REMARK   97  A    between atoms: _219  and  _220
REMARK   98  A    between atoms: _219  and  _222
REMARK   99  A    between atoms: _222  and  _223
REMARK  100  A    between atoms: _226  and  _228
REMARK  101  A    between atoms: _228  and  _229
REMARK  102  A    between atoms: _228  and  _231
REMARK  103  A    between atoms: _231  and  _232
REMARK  104  A    between atoms: _232  and  _233
REMARK  105  A    between atoms: _233  and  _234
REMARK  106  A    between atoms: _243  and  _245
REMARK  107  A    between atoms: _245  and  _246
REMARK  108  A    between atoms: _245  and  _248
REMARK  109  A    between atoms: _248  and  _249
REMARK  110  A    between atoms: _254  and  _256
REMARK  111  A    between atoms: _256  and  _257
REMARK  112  A    between atoms: _256  and  _259
REMARK  113  A    between atoms: _259  and  _260
REMARK  114  A    between atoms: _260  and  _261
REMARK  115  A    between atoms: _261  and  _262
REMARK  116  A    between atoms: _262  and  _263
REMARK  117  A    between atoms: _267  and  _269
REMARK  118  A    between atoms: _269  and  _270
REMARK  119  A    between atoms: _269  and  _272
REMARK  120  A    between atoms: _272  and  _273
REMARK  121  A    between atoms: _276  and  _278
REMARK  122  A    between atoms: _278  and  _279
REMARK  123  A    between atoms: _278  and  _281
REMARK  124  A    between atoms: _284  and  _286
REMARK  125  A    between atoms: _286  and  _287
REMARK  126  A    between atoms: _286  and  _289
REMARK  127  A    between atoms: _289  and  _290
REMARK  128  A    between atoms: _290  and  _291
REMARK  129  A    between atoms: _296  and  _298
REMARK  130  A    between atoms: _298  and  _299
REMARK  131  A    between atoms: _298  and  _301
REMARK  132  A    between atoms: _301  and  _302
REMARK  133  A    between atoms: _305  and  _307
REMARK  134  A    between atoms: _307  and  _308
REMARK  135  A    between atoms: _307  and  _310
REMARK  136  A    between atoms: _310  and  _311
REMARK  137  A    between atoms: _316  and  _317
REMARK  138  A    between atoms: _319  and  _321
REMARK  139  A    between atoms: _321  and  _322
REMARK  140  A    between atoms: _325  and  _327
REMARK  141  A    between atoms: _327  and  _328
REMARK  142  A    between atoms: _327  and  _330
REMARK  143  A    between atoms: _330  and  _331
REMARK  144  A    between atoms: _336  and  _337
REMARK  145  A    between atoms: _339  and  _341
REMARK  146  A    between atoms: _341  and  _342
REMARK  147  A    between atoms: _341  and  _344
REMARK  148  A    between atoms: _344  and  _345
REMARK  149  A    between atoms: _348  and  _350
REMARK  150  A    between atoms: _350  and  _351
REMARK  151  A    between atoms: _350  and  _353
REMARK  152  A    between atoms: _356  and  _358
REMARK  153  A    between atoms: _358  and  _359
REMARK  154  A    between atoms: _358  and  _361
REMARK  155  A    between atoms: _361  and  _362
REMARK  156  A    between atoms: _365  and  _367
REMARK  157  A    between atoms: _367  and  _368
REMARK  158  A    between atoms: _367  and  _370
REMARK  159  A    between atoms: _370  and  _371
REMARK  160  A    between atoms: _371  and  _372
REMARK  161  A    between atoms: _375  and  _377
REMARK  162  A    between atoms: _377  and  _378
REMARK  163  A    between atoms: _377  and  _380
REMARK  164  A    between atoms: _380  and  _381
REMARK  165  A    between atoms: _386  and  _387
REMARK  166  A    between atoms: _389  and  _391
REMARK  167  A    between atoms: _391  and  _392
REMARK  168  A    between atoms: _391  and  _394
REMARK  169  A    between atoms: _394  and  _395
REMARK  170  A    between atoms: _395  and  _396
REMARK  171  A    between atoms: _398  and  _400
REMARK  172  A    between atoms: _400  and  _401
REMARK  173  A    between atoms: _403  and  _405
REMARK  174  A    between atoms: _405  and  _406
REMARK  175  A    between atoms: _405  and  _408
REMARK  176  A    between atoms: _408  and  _409
REMARK  177  A    between atoms: _409  and  _410
REMARK  178  A    between atoms: _412  and  _414
REMARK  179  A    between atoms: _414  and  _415
REMARK  180  A    between atoms: _414  and  _417
REMARK  181  A    between atoms: _417  and  _418
REMARK  182  A    between atoms: _423  and  _424
REMARK  183  A    between atoms: _426  and  _428
REMARK  184  A    between atoms: _428  and  _429
REMARK  185  A    between atoms: _428  and  _431
REMARK  186  A    between atoms: _434  and  _436
REMARK  187  A    between atoms: _436  and  _437
REMARK  188  A    between atoms: _436  and  _439
REMARK  189  A    between atoms: _439  and  _440
REMARK  190  A    between atoms: _445  and  _446
REMARK  191  A    between atoms: _448  and  _450
REMARK  192  A    between atoms: _450  and  _451
REMARK  193  A    between atoms: _450  and  _453
REMARK  194  A    between atoms: _456  and  _458
REMARK  195  A    between atoms: _458  and  _459
REMARK  196  A    between atoms: _458  and  _461
REMARK  197  A    between atoms: _461  and  _462
REMARK  198  A    between atoms: _467  and  _469
REMARK  199  A    between atoms: _469  and  _470
REMARK  200  A    between atoms: _469  and  _472
REMARK  201  A    between atoms: _472  and  _473
REMARK  202  A    between atoms: _473  and  _474
REMARK  203  A    between atoms: _474  and  _475
REMARK  204  A    between atoms: _484  and  _486
REMARK  205  A    between atoms: _486  and  _487
REMARK  206  A    between atoms: _486  and  _489
REMARK  207  A    between atoms: _489  and  _490
REMARK  208  A    between atoms: _493  and  _495
REMARK  209  A    between atoms: _495  and  _496
REMARK  210  A    between atoms: _495  and  _498
REMARK  211  A    between atoms: _498  and  _499
REMARK  212  A    between atoms: _502  and  _504
REMARK  213  A    between atoms: _504  and  _505
REMARK  214  A    between atoms: _508  and  _510
REMARK  215  A    between atoms: _510  and  _511
REMARK  216  A    between atoms: _510  and  _513
REMARK  217  A    between atoms: _513  and  _514
REMARK  218  A    between atoms: _519  and  _521
REMARK  219  A    between atoms: _521  and  _522
REMARK  220  A    between atoms: _521  and  _524
REMARK  221  A    between atoms: _524  and  _525
REMARK  222  A    between atoms: _528  and  _530
REMARK  223  A    between atoms: _530  and  _531
REMARK  224  A    between atoms: _530  and  _533
REMARK  225  A    between atoms: _533  and  _534
REMARK  226  A    between atoms: _537  and  _539
REMARK  227  A    between atoms: _539  and  _540
REMARK  228  A    between atoms: _539  and  _542
REMARK  229  A    between atoms: _542  and  _543
REMARK  230  A    between atoms: _543  and  _544
REMARK  231  A    between atoms: _544  and  _545
REMARK  232  A    between atoms: _545  and  _546
REMARK  233  A    between atoms: _550  and  _552
REMARK  234  A    between atoms: _552  and  _553
REMARK  235  A    between atoms: _552  and  _555
REMARK  236  A    between atoms: _558  and  _560
REMARK  237  A    between atoms: _560  and  _561
REMARK  238  A    between atoms: _564  and  _566
REMARK  239  A    between atoms: _566  and  _567
REMARK  240  A    between atoms: _566  and  _569
REMARK  241  A    between atoms: _569  and  _570
REMARK  242  A    between atoms: _573  and  _575
REMARK  243  A    between atoms: _575  and  _576
REMARK  244  A    between atoms: _575  and  _578
REMARK  245  A    between atoms: _578  and  _579
REMARK  246  A    between atoms: _585  and  _587
REMARK  247  A    between atoms: _587  and  _588
REMARK  248  A    between atoms: _590  and  _592
REMARK  249  A    between atoms: _592  and  _593
REMARK  250  A    between atoms: _592  and  _595
REMARK  251  A    between atoms: _595  and  _596
REMARK                            x       y       z     vdW  Elec       q    Type
REMARK                         _______ _______ _______ _____ _____    ______ ____
ROOT
ATOM      1  C   ILE A   3      -8.550  39.180 -13.471  0.00  0.00    +0.241 C 
ATOM      2  O   ILE A   3      -8.719  40.223 -12.846  0.00  0.00    -0.273 OA
ATOM      3  N   LYS A   4      -7.356  38.737 -13.786  0.00  0.00    -0.297 N 
ATOM      4  H   LYS A   4      -7.255  37.863 -14.340  0.00  0.00    +0.150 HD
ENDROOT
BRANCH   3   5
ATOM      5  CA  LYS A   4      -6.188  39.459 -13.366  0.00  0.00    +0.149 C 
BRANCH   5   6
ATOM      6  C   LYS A   4      -5.568  40.073 -14.581  0.00  0.00    +0.241 C 
ATOM      7  N   THR A   5      -5.072  41.282 -14.367  0.00  0.00    -0.296 N 
ATOM      8  H   THR A   5      -5.023  41.609 -13.381  0.00  0.00    +0.150 HD
ATOM      9  O   LYS A   4      -5.510  39.447 -15.656  0.00  0.00    -0.273 OA
BRANCH   7  10
ATOM     10  CA  THR A   5      -4.595  42.182 -15.385  0.00  0.00    +0.164 C 
BRANCH  10  11
ATOM     11  CB  THR A   5      -5.480  43.497 -15.337  0.00  0.00    +0.136 C 
ATOM     12  CG2 THR A   5      -4.727  44.717 -15.855  0.00  0.00    +0.034 C 
BRANCH  11  13
ATOM     13  OG1 THR A   5      -6.688  43.320 -16.103  0.00  0.00    -0.382 OA
ATOM     14  HG1 THR A   5      -7.228  44.149 -16.062  0.00  0.00    +0.210 HD
ENDBRANCH  11  13
ENDBRANCH  10  11
BRANCH  10  15
ATOM     15  C   THR A   5      -3.117  42.545 -15.140  0.00  0.00    +0.229 C 
ATOM     16  O   THR A   5      -2.644  42.571 -13.978  0.00  0.00    -0.286 OA
ENDBRANCH  10  15
ENDBRANCH   7  10
ENDBRANCH   5   6
BRANCH   5  17
ATOM     17  CB  LYS A   4      -5.197  38.537 -12.625  0.00  0.00    +0.029 C 
BRANCH  17  18
ATOM     18  CG  LYS A   4      -3.791  39.078 -12.459  0.00  0.00    +0.000 C 
BRANCH  18  19
ATOM     19  CD  LYS A   4      -3.011  38.222 -11.461  0.00  0.00    -0.024 C 
BRANCH  19  20
ATOM     20  CE  LYS A   4      -1.885  39.053 -10.876  0.00  0.00    -0.086 C 
BRANCH  20  21
ATOM     21  NZ  LYS A   4      -0.983  38.263 -10.020  0.00  0.00    +0.380 N 
ATOM     22  HZ1 LYS A   4      -1.524  37.857  -9.230  0.00  0.00    -0.089 HD
ATOM     23  HZ2 LYS A   4      -0.233  38.879  -9.647  0.00  0.00    -0.089 HD
ATOM     24  HZ3 LYS A   4      -0.557  37.497 -10.581  0.00  0.00    -0.089 HD
ENDBRANCH  20  21
ENDBRANCH  19  20
ENDBRANCH  18  19
ENDBRANCH  17  18
ENDBRANCH   5  17
ENDBRANCH   3   5
BRANCH   1  25
ATOM     25  CA  ILE A   3      -9.730  38.311 -13.905  0.00  0.00    +0.149 C 
BRANCH  25  27
ATOM     26  C   ALA A   2     -10.857  36.767 -12.365  0.00  0.00    +0.241 C 
ATOM     27  N   ILE A   3     -10.517  37.998 -12.717  0.00  0.00    -0.297 N 
ATOM     28  H   ILE A   3     -10.828  38.785 -12.113  0.00  0.00    +0.150 HD
ATOM     29  O   ALA A   2     -10.421  35.747 -12.912  0.00  0.00    -0.273 OA
BRANCH  26  30
ATOM     30  CA  ALA A   2     -11.885  36.673 -11.258  0.00  0.00    +0.149 C 
ATOM     31  CB  ALA A   2     -11.264  36.298  -9.906  0.00  0.00    +0.031 C 
BRANCH  30  33
ATOM     32  C   VAL A   1     -14.012  35.947 -12.122  0.00  0.00    +0.238 C 
ATOM     33  N   ALA A   2     -12.785  35.659 -11.720  0.00  0.00    -0.297 N 
ATOM     34  H   ALA A   2     -12.465  34.670 -11.740  0.00  0.00    +0.150 HD
ATOM     35  O   VAL A   1     -14.546  37.038 -11.952  0.00  0.00    -0.274 OA
BRANCH  32  36
ATOM     36  CA  VAL A   1     -14.759  34.814 -12.794  0.00  0.00    +0.145 C 
BRANCH  36  37
ATOM     37  CB  VAL A   1     -14.190  34.600 -14.269  0.00  0.00    +0.025 C 
ATOM     38  CG2 VAL A   1     -14.641  33.266 -14.863  0.00  0.00    +0.002 C 
ATOM     39  CG1 VAL A   1     -14.555  35.738 -15.186  0.00  0.00    +0.002 C 
ENDBRANCH  36  37
BRANCH  36  40
ATOM     40  N   VAL A   1     -16.198  35.070 -12.736  0.00  0.00    -0.238 NA
ATOM     41  H   VAL A   1     -16.555  36.040 -12.854  0.00  0.00    +0.142 HD
ENDBRANCH  36  40
ENDBRANCH  32  36
ENDBRANCH  30  33
ENDBRANCH  26  30
ENDBRANCH  25  27
BRANCH  25  42
ATOM     42  CB  ILE A   3     -10.588  39.077 -14.973  0.00  0.00    +0.027 C 
ATOM     43  CG2 ILE A   3      -9.731  39.488 -16.191  0.00  0.00    +0.002 C 
BRANCH  42  44
ATOM     44  CG1 ILE A   3     -11.790  38.230 -15.412  0.00  0.00    +0.002 C 
ATOM     45  CD1 ILE A   3     -12.931  39.015 -16.061  0.00  0.00    +0.000 C 
ENDBRANCH  42  44
ENDBRANCH  25  42
ENDBRANCH   1  25
TORSDOF 20
REMARK  Name = ../refined-set-2016/3f3t/3f3t_pocket.pdb
REMARK  251 active torsions:
REMARK  status: ('A' for Active; 'I' for Inactive)
REMARK    1  A    between atoms: _1  and  _3
REMARK    2  A    between atoms: _3  and  _4
REMARK    3  A    between atoms: _3  and  _6
REMARK    4  A    between atoms: _6  and  _7
REMARK    5  A    between atoms: _10  and  _12
REMARK    6  A    between atoms: _12  and  _13
REMARK    7  A    between atoms: _12  and  _15
REMARK    8  A    between atoms: _15  and  _16
REMARK    9  A    between atoms: _16  and  _17
REMARK   10  A    between atoms: _20  and  _22
REMARK   11  A    between atoms: _22  and  _23
REMARK   12  A    between atoms: _22  and  _25
REMARK   13  A    between atoms: _28  and  _30
REMARK   14  A    between atoms: _30  and  _31
REMARK   15  A    between atoms: _30  and  _33
REMARK   16  A    between atoms: _33  and  _34
REMARK   17  A    between atoms: _44  and  _46
REMARK   18  A    between atoms: _46  and  _47
REMARK   19  A    between atoms: _46  and  _49
REMARK   20  A    between atoms: _49  and  _50
REMARK   21  A    between atoms: _50  and  _51
REMARK   22  A    between atoms: _53  and  _55
REMARK   23  A    between atoms: _55  and  _56
REMARK   24  A    between atoms: _55  and  _58
REMARK   25  A    between atoms: _61  and  _63
REMARK   26  A    between atoms: _63  and  _64
REMARK   27  A    between atoms: _67  and  _69
REMARK   28  A    between atoms: _69  and  _70
REMARK   29  A    between atoms: _69  and  _72
REMARK   30  A    between atoms: _72  and  _73
REMARK   31  A    between atoms: _76  and  _78
REMARK   32  A    between atoms: _78  and  _79
REMARK   33  A    between atoms: _78  and  _81
REMARK   34  A    between atoms: _81  and  _82
REMARK   35  A    between atoms: _82  and  _83
REMARK   36  A    between atoms: _83  and  _84
REMARK   37  A    between atoms: _84  and  _85
REMARK   38  A    between atoms: _89  and  _91
REMARK   39  A    between atoms: _91  and  _92
REMARK   40  A    between atoms: _91  and  _94
REMARK   41  A    between atoms: _94  and  _95
REMARK   42  A    between atoms: _98  and  _100
REMARK   43  A    between atoms: _100  and  _101
REMARK   44  A    between atoms: _100  and  _103
REMARK   45  A    between atoms: _103  and  _104
REMARK   46  A    between atoms: _104  and  _105
REMARK   47  A    between atoms: _107  and  _109
REMARK   48  A    between atoms: _109  and  _110
REMARK   49  A    between atoms: _113  and  _115
REMARK   50  A    between atoms: _115  and  _116
REMARK   51  A    between atoms: _115  and  _118
REMARK   52  A    between atoms: _118  and  _119
REMARK   53  A    between atoms: _125  and  _127
REMARK   54  A    between atoms: _127  and  _128
REMARK   55  A    between atoms: _127  and  _130
REMARK   56  A    between atoms: _130  and  _131
REMARK   57  A    between atoms: _134  and  _136
REMARK   58  A    between atoms: _136  and  _137
REMARK   59  A    between atoms: _136  and  _139
REMARK   60  A    between atoms: _139  and  _140
REMARK   61  A    between atoms: _140  and  _141
REMARK   62  A    between atoms: _146  and  _148
REMARK   63  A    between atoms: _148  and  _149
REMARK   64  A    between atoms: _148  and  _151
REMARK   65  A    between atoms: _151  and  _152
REMARK   66  A    between atoms: _152  and  _153
REMARK   67  A    between atoms: _156  and  _158
REMARK   68  A    between atoms: _158  and  _159
REMARK   69  A    between atoms: _162  and  _164
REMARK   70  A    between atoms: _164  and  _165
REMARK   71  A    between atoms: _164  and  _167
REMARK   72  A    between atoms: _167  and  _168
REMARK   73  A    between atoms: _168  and  _169
REMARK   74  A    between atoms: _174  and  _176
REMARK   75  A    between atoms: _176  and  _177
REMARK   76  A    between atoms: _176  and  _179
REMARK   77  A    between atoms: _182  and  _184
REMARK   78  A    between atoms: _184  and  _185
REMARK   79  A    between atoms: _184  and  _187
REMARK   80  A    between atoms: _187  and  _188
REMARK   81  A    between atoms: _188  and  _189
REMARK   82  A    between atoms: _191  and  _193
REMARK   83  A    between atoms: _193  and  _194
REMARK   84  A    between atoms: _193  and  _196
REMARK   85  A    between atoms: _196  and  _197
REMARK   86  A    between atoms: _197  and  _198
REMARK   87  A    between atoms: _198  and  _199
REMARK   88  A    between atoms: _199  and  _200
REMARK   89  A    between atoms: _204  and  _206
REMARK   90  A    between atoms: _206  and  _207
REMARK   91  A    between atoms: _206  and  _209
REMARK   92  A    between atoms: _209  and  _210
REMARK   93  A    between atoms: _210  and  _211
REMARK   94  A    between atoms: _211  and  _212
REMARK   95  A    between atoms: _212  and  _213
REMARK   96  A    between atoms: _217  and  _219
REMARK   97  A    between atoms: _219  and  _220
REMARK   98  A    between atoms: _219  and  _222
REMARK   99  A    between atoms: _222  and  _223
REMARK  100  A    between atoms: _226  and  _228
REMARK  101  A    between atoms: _228  and  _229
REMARK  102  A    between atoms: _228  and  _231
REMARK  103  A    between atoms: _231  and  _232
REMARK  104  A    between atoms: _232  and  _233
REMARK  105  A    between atoms: _233  and  _234
REMARK  106  A    between atoms: _243  and  _245
REMARK  107  A    between atoms: _245  and  _246
REMARK  108  A    between atoms: _245  and  _248
REMARK  109  A    between atoms: _248  and  _249
REMARK  110  A    between atoms: _254  and  _256
REMARK  111  A    between atoms: _256  and  _257
REMARK  112  A    between atoms: _256  and  _259
REMARK  113  A    between atoms: _259  and  _260
REMARK  114  A    between atoms: _260  and  _261
REMARK  115  A    between atoms: _261  and  _262
REMARK  116  A    between atoms: _262  and  _263
REMARK  117  A    between atoms: _267  and  _269
REMARK  118  A    between atoms: _269  and  _270
REMARK  119  A    between atoms: _269  and  _272
REMARK  120  A    between atoms: _272  and  _273
REMARK  121  A    between atoms: _276  and  _278
REMARK  122  A    between atoms: _278  and  _279
REMARK  123  A    between atoms: _278  and  _281
REMARK  124  A    between atoms: _284  and  _286
REMARK  125  A    between atoms: _286  and  _287
REMARK  126  A    between atoms: _286  and  _289
REMARK  127  A    between atoms: _289  and  _290
REMARK  128  A    between atoms: _290  and  _291
REMARK  129  A    between atoms: _296  and  _298
REMARK  130  A    between atoms: _298  and  _299
REMARK  131  A    between atoms: _298  and  _301
REMARK  132  A    between atoms: _301  and  _302
REMARK  133  A    between atoms: _305  and  _307
REMARK  134  A    between atoms: _307  and  _308
REMARK  135  A    between atoms: _307  and  _310
REMARK  136  A    between atoms: _310  and  _311
REMARK  137  A    between atoms: _316  and  _317
REMARK  138  A    between atoms: _319  and  _321
REMARK  139  A    between atoms: _321  and  _322
REMARK  140  A    between atoms: _325  and  _327
REMARK  141  A    between atoms: _327  and  _328
REMARK  142  A    between atoms: _327  and  _330
REMARK  143  A    between atoms: _330  and  _331
REMARK  144  A    between atoms: _336  and  _337
REMARK  145  A    between atoms: _339  and  _341
REMARK  146  A    between atoms: _341  and  _342
REMARK  147  A    between atoms: _341  and  _344
REMARK  148  A    between atoms: _344  and  _345
REMARK  149  A    between atoms: _348  and  _350
REMARK  150  A    between atoms: _350  and  _351
REMARK  151  A    between atoms: _350  and  _353
REMARK  152  A    between atoms: _356  and  _358
REMARK  153  A    between atoms: _358  and  _359
REMARK  154  A    between atoms: _358  and  _361
REMARK  155  A    between atoms: _361  and  _362
REMARK  156  A    between atoms: _365  and  _367
REMARK  157  A    between atoms: _367  and  _368
REMARK  158  A    between atoms: _367  and  _370
REMARK  159  A    between atoms: _370  and  _371
REMARK  160  A    between atoms: _371  and  _372
REMARK  161  A    between atoms: _375  and  _377
REMARK  162  A    between atoms: _377  and  _378
REMARK  163  A    between atoms: _377  and  _380
REMARK  164  A    between atoms: _380  and  _381
REMARK  165  A    between atoms: _386  and  _387
REMARK  166  A    between atoms: _389  and  _391
REMARK  167  A    between atoms: _391  and  _392
REMARK  168  A    between atoms: _391  and  _394
REMARK  169  A    between atoms: _394  and  _395
REMARK  170  A    between atoms: _395  and  _396
REMARK  171  A    between atoms: _398  and  _400
REMARK  172  A    between atoms: _400  and  _401
REMARK  173  A    between atoms: _403  and  _405
REMARK  174  A    between atoms: _405  and  _406
REMARK  175  A    between atoms: _405  and  _408
REMARK  176  A    between atoms: _408  and  _409
REMARK  177  A    between atoms: _409  and  _410
REMARK  178  A    between atoms: _412  and  _414
REMARK  179  A    between atoms: _414  and  _415
REMARK  180  A    between atoms: _414  and  _417
REMARK  181  A    between atoms: _417  and  _418
REMARK  182  A    between atoms: _423  and  _424
REMARK  183  A    between atoms: _426  and  _428
REMARK  184  A    between atoms: _428  and  _429
REMARK  185  A    between atoms: _428  and  _431
REMARK  186  A    between atoms: _434  and  _436
REMARK  187  A    between atoms: _436  and  _437
REMARK  188  A    between atoms: _436  and  _439
REMARK  189  A    between atoms: _439  and  _440
REMARK  190  A    between atoms: _445  and  _446
REMARK  191  A    between atoms: _448  and  _450
REMARK  192  A    between atoms: _450  and  _451
REMARK  193  A    between atoms: _450  and  _453
REMARK  194  A    between atoms: _456  and  _458
REMARK  195  A    between atoms: _458  and  _459
REMARK  196  A    between atoms: _458  and  _461
REMARK  197  A    between atoms: _461  and  _462
REMARK  198  A    between atoms: _467  and  _469
REMARK  199  A    between atoms: _469  and  _470
REMARK  200  A    between atoms: _469  and  _472
REMARK  201  A    between atoms: _472  and  _473
REMARK  202  A    between atoms: _473  and  _474
REMARK  203  A    between atoms: _474  and  _475
REMARK  204  A    between atoms: _484  and  _486
REMARK  205  A    between atoms: _486  and  _487
REMARK  206  A    between atoms: _486  and  _489
REMARK  207  A    between atoms: _489  and  _490
REMARK  208  A    between atoms: _493  and  _495
REMARK  209  A    between atoms: _495  and  _496
REMARK  210  A    between atoms: _495  and  _498
REMARK  211  A    between atoms: _498  and  _499
REMARK  212  A    between atoms: _502  and  _504
REMARK  213  A    between atoms: _504  and  _505
REMARK  214  A    between atoms: _508  and  _510
REMARK  215  A    between atoms: _510  and  _511
REMARK  216  A    between atoms: _510  and  _513
REMARK  217  A    between atoms: _513  and  _514
REMARK  218  A    between atoms: _519  and  _521
REMARK  219  A    between atoms: _521  and  _522
REMARK  220  A    between atoms: _521  and  _524
REMARK  221  A    between atoms: _524  and  _525
REMARK  222  A    between atoms: _528  and  _530
REMARK  223  A    between atoms: _530  and  _531
REMARK  224  A    between atoms: _530  and  _533
REMARK  225  A    between atoms: _533  and  _534
REMARK  226  A    between atoms: _537  and  _539
REMARK  227  A    between atoms: _539  and  _540
REMARK  228  A    between atoms: _539  and  _542
REMARK  229  A    between atoms: _542  and  _543
REMARK  230  A    between atoms: _543  and  _544
REMARK  231  A    between atoms: _544  and  _545
REMARK  232  A    between atoms: _545  and  _546
REMARK  233  A    between atoms: _550  and  _552
REMARK  234  A    between atoms: _552  and  _553
REMARK  235  A    between atoms: _552  and  _555
REMARK  236  A    between atoms: _558  and  _560
REMARK  237  A    between atoms: _560  and  _561
REMARK  238  A    between atoms: _564  and  _566
REMARK  239  A    between atoms: _566  and  _567
REMARK  240  A    between atoms: _566  and  _569
REMARK  241  A    between atoms: _569  and  _570
REMARK  242  A    between atoms: _573  and  _575
REMARK  243  A    between atoms: _575  and  _576
REMARK  244  A    between atoms: _575  and  _578
REMARK  245  A    between atoms: _578  and  _579
REMARK  246  A    between atoms: _585  and  _587
REMARK  247  A    between atoms: _587  and  _588
REMARK  248  A    between atoms: _590  and  _592
REMARK  249  A    between atoms: _592  and  _593
REMARK  250  A    between atoms: _592  and  _595
REMARK  251  A    between atoms: _595  and  _596
REMARK                            x       y       z     vdW  Elec       q    Type
REMARK                         _______ _______ _______ _____ _____    ______ ____
ROOT
ATOM      1  CA  MET A   1       6.852  43.424 -15.728  0.00  0.00    +0.134 C 
ENDROOT
BRANCH   1   2
ATOM      2  N   MET A   1       6.072  44.669 -15.670  0.00  0.00    -0.239 NA
ATOM      3  H   MET A   1       5.200  44.752 -16.231  0.00  0.00    +0.142 HD
ENDBRANCH   1   2
BRANCH   1   4
ATOM      4  C   MET A   1       6.763  42.762 -17.096  0.00  0.00    +0.224 C 
ATOM      5  O   MET A   1       5.923  43.136 -17.915  0.00  0.00    -0.287 OA
ENDBRANCH   1   4
BRANCH   1   6
ATOM      6  CB  MET A   1       6.464  42.446 -14.611  0.00  0.00    +0.037 C 
BRANCH   6   7
ATOM      7  CG  MET A   1       5.237  41.598 -14.889  0.00  0.00    +0.059 C 
BRANCH   7   8
ATOM      8  SD  MET A   1       5.007  40.273 -13.686  0.00  0.00    -0.139 S 
ATOM      9  CE  MET A   1       4.055  41.086 -12.398  0.00  0.00    +0.069 C 
ENDBRANCH   7   8
ENDBRANCH   6   7
ENDBRANCH   1   6
TORSDOF 5
REMARK  Name = ../refined-set-2016/3f3t/3f3t_pocket.pdb
REMARK  251 active torsions:
REMARK  status: ('A' for Active; 'I' for Inactive)
REMARK    1  A    between atoms: _1  and  _3
REMARK    2  A    between atoms: _3  and  _4
REMARK    3  A    between atoms: _3  and  _6
REMARK    4  A    between atoms: _6  and  _7
REMARK    5  A    between atoms: _10  and  _12
REMARK    6  A    between atoms: _12  and  _13
REMARK    7  A    between atoms: _12  and  _15
REMARK    8  A    between atoms: _15  and  _16
REMARK    9  A    between atoms: _16  and  _17
REMARK   10  A    between atoms: _20  and  _22
REMARK   11  A    between atoms: _22  and  _23
REMARK   12  A    between atoms: _22  and  _25
REMARK   13  A    between atoms: _28  and  _30
REMARK   14  A    between atoms: _30  and  _31
REMARK   15  A    between atoms: _30  and  _33
REMARK   16  A    between atoms: _33  and  _34
REMARK   17  A    between atoms: _44  and  _46
REMARK   18  A    between atoms: _46  and  _47
REMARK   19  A    between atoms: _46  and  _49
REMARK   20  A    between atoms: _49  and  _50
REMARK   21  A    between atoms: _50  and  _51
REMARK   22  A    between atoms: _53  and  _55
REMARK   23  A    between atoms: _55  and  _56
REMARK   24  A    between atoms: _55  and  _58
REMARK   25  A    between atoms: _61  and  _63
REMARK   26  A    between atoms: _63  and  _64
REMARK   27  A    between atoms: _67  and  _69
REMARK   28  A    between atoms: _69  and  _70
REMARK   29  A    between atoms: _69  and  _72
REMARK   30  A    between atoms: _72  and  _73
REMARK   31  A    between atoms: _76  and  _78
REMARK   32  A    between atoms: _78  and  _79
REMARK   33  A    between atoms: _78  and  _81
REMARK   34  A    between atoms: _81  and  _82
REMARK   35  A    between atoms: _82  and  _83
REMARK   36  A    between atoms: _83  and  _84
REMARK   37  A    between atoms: _84  and  _85
REMARK   38  A    between atoms: _89  and  _91
REMARK   39  A    between atoms: _91  and  _92
REMARK   40  A    between atoms: _91  and  _94
REMARK   41  A    between atoms: _94  and  _95
REMARK   42  A    between atoms: _98  and  _100
REMARK   43  A    between atoms: _100  and  _101
REMARK   44  A    between atoms: _100  and  _103
REMARK   45  A    between atoms: _103  and  _104
REMARK   46  A    between atoms: _104  and  _105
REMARK   47  A    between atoms: _107  and  _109
REMARK   48  A    between atoms: _109  and  _110
REMARK   49  A    between atoms: _113  and  _115
REMARK   50  A    between atoms: _115  and  _116
REMARK   51  A    between atoms: _115  and  _118
REMARK   52  A    between atoms: _118  and  _119
REMARK   53  A    between atoms: _125  and  _127
REMARK   54  A    between atoms: _127  and  _128
REMARK   55  A    between atoms: _127  and  _130
REMARK   56  A    between atoms: _130  and  _131
REMARK   57  A    between atoms: _134  and  _136
REMARK   58  A    between atoms: _136  and  _137
REMARK   59  A    between atoms: _136  and  _139
REMARK   60  A    between atoms: _139  and  _140
REMARK   61  A    between atoms: _140  and  _141
REMARK   62  A    between atoms: _146  and  _148
REMARK   63  A    between atoms: _148  and  _149
REMARK   64  A    between atoms: _148  and  _151
REMARK   65  A    between atoms: _151  and  _152
REMARK   66  A    between atoms: _152  and  _153
REMARK   67  A    between atoms: _156  and  _158
REMARK   68  A    between atoms: _158  and  _159
REMARK   69  A    between atoms: _162  and  _164
REMARK   70  A    between atoms: _164  and  _165
REMARK   71  A    between atoms: _164  and  _167
REMARK   72  A    between atoms: _167  and  _168
REMARK   73  A    between atoms: _168  and  _169
REMARK   74  A    between atoms: _174  and  _176
REMARK   75  A    between atoms: _176  and  _177
REMARK   76  A    between atoms: _176  and  _179
REMARK   77  A    between atoms: _182  and  _184
REMARK   78  A    between atoms: _184  and  _185
REMARK   79  A    between atoms: _184  and  _187
REMARK   80  A    between atoms: _187  and  _188
REMARK   81  A    between atoms: _188  and  _189
REMARK   82  A    between atoms: _191  and  _193
REMARK   83  A    between atoms: _193  and  _194
REMARK   84  A    between atoms: _193  and  _196
REMARK   85  A    between atoms: _196  and  _197
REMARK   86  A    between atoms: _197  and  _198
REMARK   87  A    between atoms: _198  and  _199
REMARK   88  A    between atoms: _199  and  _200
REMARK   89  A    between atoms: _204  and  _206
REMARK   90  A    between atoms: _206  and  _207
REMARK   91  A    between atoms: _206  and  _209
REMARK   92  A    between atoms: _209  and  _210
REMARK   93  A    between atoms: _210  and  _211
REMARK   94  A    between atoms: _211  and  _212
REMARK   95  A    between atoms: _212  and  _213
REMARK   96  A    between atoms: _217  and  _219
REMARK   97  A    between atoms: _219  and  _220
REMARK   98  A    between atoms: _219  and  _222
REMARK   99  A    between atoms: _222  and  _223
REMARK  100  A    between atoms: _226  and  _228
REMARK  101  A    between atoms: _228  and  _229
REMARK  102  A    between atoms: _228  and  _231
REMARK  103  A    between atoms: _231  and  _232
REMARK  104  A    between atoms: _232  and  _233
REMARK  105  A    between atoms: _233  and  _234
REMARK  106  A    between atoms: _243  and  _245
REMARK  107  A    between atoms: _245  and  _246
REMARK  108  A    between atoms: _245  and  _248
REMARK  109  A    between atoms: _248  and  _249
REMARK  110  A    between atoms: _254  and  _256
REMARK  111  A    between atoms: _256  and  _257
REMARK  112  A    between atoms: _256  and  _259
REMARK  113  A    between atoms: _259  and  _260
REMARK  114  A    between atoms: _260  and  _261
REMARK  115  A    between atoms: _261  and  _262
REMARK  116  A    between atoms: _262  and  _263
REMARK  117  A    between atoms: _267  and  _269
REMARK  118  A    between atoms: _269  and  _270
REMARK  119  A    between atoms: _269  and  _272
REMARK  120  A    between atoms: _272  and  _273
REMARK  121  A    between atoms: _276  and  _278
REMARK  122  A    between atoms: _278  and  _279
REMARK  123  A    between atoms: _278  and  _281
REMARK  124  A    between atoms: _284  and  _286
REMARK  125  A    between atoms: _286  and  _287
REMARK  126  A    between atoms: _286  and  _289
REMARK  127  A    between atoms: _289  and  _290
REMARK  128  A    between atoms: _290  and  _291
REMARK  129  A    between atoms: _296  and  _298
REMARK  130  A    between atoms: _298  and  _299
REMARK  131  A    between atoms: _298  and  _301
REMARK  132  A    between atoms: _301  and  _302
REMARK  133  A    between atoms: _305  and  _307
REMARK  134  A    between atoms: _307  and  _308
REMARK  135  A    between atoms: _307  and  _310
REMARK  136  A    between atoms: _310  and  _311
REMARK  137  A    between atoms: _316  and  _317
REMARK  138  A    between atoms: _319  and  _321
REMARK  139  A    between atoms: _321  and  _322
REMARK  140  A    between atoms: _325  and  _327
REMARK  141  A    between atoms: _327  and  _328
REMARK  142  A    between atoms: _327  and  _330
REMARK  143  A    between atoms: _330  and  _331
REMARK  144  A    between atoms: _336  and  _337
REMARK  145  A    between atoms: _339  and  _341
REMARK  146  A    between atoms: _341  and  _342
REMARK  147  A    between atoms: _341  and  _344
REMARK  148  A    between atoms: _344  and  _345
REMARK  149  A    between atoms: _348  and  _350
REMARK  150  A    between atoms: _350  and  _351
REMARK  151  A    between atoms: _350  and  _353
REMARK  152  A    between atoms: _356  and  _358
REMARK  153  A    between atoms: _358  and  _359
REMARK  154  A    between atoms: _358  and  _361
REMARK  155  A    between atoms: _361  and  _362
REMARK  156  A    between atoms: _365  and  _367
REMARK  157  A    between atoms: _367  and  _368
REMARK  158  A    between atoms: _367  and  _370
REMARK  159  A    between atoms: _370  and  _371
REMARK  160  A    between atoms: _371  and  _372
REMARK  161  A    between atoms: _375  and  _377
REMARK  162  A    between atoms: _377  and  _378
REMARK  163  A    between atoms: _377  and  _380
REMARK  164  A    between atoms: _380  and  _381
REMARK  165  A    between atoms: _386  and  _387
REMARK  166  A    between atoms: _389  and  _391
REMARK  167  A    between atoms: _391  and  _392
REMARK  168  A    between atoms: _391  and  _394
REMARK  169  A    between atoms: _394  and  _395
REMARK  170  A    between atoms: _395  and  _396
REMARK  171  A    between atoms: _398  and  _400
REMARK  172  A    between atoms: _400  and  _401
REMARK  173  A    between atoms: _403  and  _405
REMARK  174  A    between atoms: _405  and  _406
REMARK  175  A    between atoms: _405  and  _408
REMARK  176  A    between atoms: _408  and  _409
REMARK  177  A    between atoms: _409  and  _410
REMARK  178  A    between atoms: _412  and  _414
REMARK  179  A    between atoms: _414  and  _415
REMARK  180  A    between atoms: _414  and  _417
REMARK  181  A    between atoms: _417  and  _418
REMARK  182  A    between atoms: _423  and  _424
REMARK  183  A    between atoms: _426  and  _428
REMARK  184  A    between atoms: _428  and  _429
REMARK  185  A    between atoms: _428  and  _431
REMARK  186  A    between atoms: _434  and  _436
REMARK  187  A    between atoms: _436  and  _437
REMARK  188  A    between atoms: _436  and  _439
REMARK  189  A    between atoms: _439  and  _440
REMARK  190  A    between atoms: _445  and  _446
REMARK  191  A    between atoms: _448  and  _450
REMARK  192  A    between atoms: _450  and  _451
REMARK  193  A    between atoms: _450  and  _453
REMARK  194  A    between atoms: _456  and  _458
REMARK  195  A    between atoms: _458  and  _459
REMARK  196  A    between atoms: _458  and  _461
REMARK  197  A    between atoms: _461  and  _462
REMARK  198  A    between atoms: _467  and  _469
REMARK  199  A    between atoms: _469  and  _470
REMARK  200  A    between atoms: _469  and  _472
REMARK  201  A    between atoms: _472  and  _473
REMARK  202  A    between atoms: _473  and  _474
REMARK  203  A    between atoms: _474  and  _475
REMARK  204  A    between atoms: _484  and  _486
REMARK  205  A    between atoms: _486  and  _487
REMARK  206  A    between atoms: _486  and  _489
REMARK  207  A    between atoms: _489  and  _490
REMARK  208  A    between atoms: _493  and  _495
REMARK  209  A    between atoms: _495  and  _496
REMARK  210  A    between atoms: _495  and  _498
REMARK  211  A    between atoms: _498  and  _499
REMARK  212  A    between atoms: _502  and  _504
REMARK  213  A    between atoms: _504  and  _505
REMARK  214  A    between atoms: _508  and  _510
REMARK  215  A    between atoms: _510  and  _511
REMARK  216  A    between atoms: _510  and  _513
REMARK  217  A    between atoms: _513  and  _514
REMARK  218  A    between atoms: _519  and  _521
REMARK  219  A    between atoms: _521  and  _522
REMARK  220  A    between atoms: _521  and  _524
REMARK  221  A    between atoms: _524  and  _525
REMARK  222  A    between atoms: _528  and  _530
REMARK  223  A    between atoms: _530  and  _531
REMARK  224  A    between atoms: _530  and  _533
REMARK  225  A    between atoms: _533  and  _534
REMARK  226  A    between atoms: _537  and  _539
REMARK  227  A    between atoms: _539  and  _540
REMARK  228  A    between atoms: _539  and  _542
REMARK  229  A    between atoms: _542  and  _543
REMARK  230  A    between atoms: _543  and  _544
REMARK  231  A    between atoms: _544  and  _545
REMARK  232  A    between atoms: _545  and  _546
REMARK  233  A    between atoms: _550  and  _552
REMARK  234  A    between atoms: _552  and  _553
REMARK  235  A    between atoms: _552  and  _555
REMARK  236  A    between atoms: _558  and  _560
REMARK  237  A    between atoms: _560  and  _561
REMARK  238  A    between atoms: _564  and  _566
REMARK  239  A    between atoms: _566  and  _567
REMARK  240  A    between atoms: _566  and  _569
REMARK  241  A    between atoms: _569  and  _570
REMARK  242  A    between atoms: _573  and  _575
REMARK  243  A    between atoms: _575  and  _576
REMARK  244  A    between atoms: _575  and  _578
REMARK  245  A    between atoms: _578  and  _579
REMARK  246  A    between atoms: _585  and  _587
REMARK  247  A    between atoms: _587  and  _588
REMARK  248  A    between atoms: _590  and  _592
REMARK  249  A    between atoms: _592  and  _593
REMARK  250  A    between atoms: _592  and  _595
REMARK  251  A    between atoms: _595  and  _596
REMARK                            x       y       z     vdW  Elec       q    Type
REMARK                         _______ _______ _______ _____ _____    ______ ____
ROOT
ATOM      1  C   VAL A   8       0.891  26.670 -12.571  0.00  0.00    +0.241 C 
ATOM      2  O   VAL A   8       0.759  25.567 -12.049  0.00  0.00    -0.273 OA
ATOM      3  N   MET A   9      -0.140  27.464 -12.815  0.00  0.00    -0.297 N 
ATOM      4  H   MET A   9       0.008  28.373 -13.297  0.00  0.00    +0.150 HD
ENDROOT
BRANCH   3   5
ATOM      5  CA  MET A   9      -1.473  27.068 -12.411  0.00  0.00    +0.149 C 
BRANCH   5   6
ATOM      6  C   MET A   9      -2.090  26.015 -13.344  0.00  0.00    +0.241 C 
ATOM      7  O   MET A   9      -3.029  25.320 -12.957  0.00  0.00    -0.273 OA
ATOM      8  N   LYS A  10      -1.554  25.885 -14.558  0.00  0.00    -0.297 N 
ATOM      9  H   LYS A  10      -0.822  26.556 -14.868  0.00  0.00    +0.150 HD
BRANCH   8  10
ATOM     10  CA  LYS A  10      -1.977  24.816 -15.461  0.00  0.00    +0.149 C 
BRANCH  10  11
ATOM     11  C   LYS A  10      -1.555  23.419 -14.961  0.00  0.00    +0.241 C 
ATOM     12  N   LYS A  11      -0.447  23.350 -14.225  0.00  0.00    -0.297 N 
ATOM     13  H   LYS A  11       0.013  24.231 -13.919  0.00  0.00    +0.150 HD
ATOM     14  O   LYS A  10      -2.227  22.428 -15.244  0.00  0.00    -0.273 OA
BRANCH  12  15
ATOM     15  CA  LYS A  11       0.137  22.072 -13.838  0.00  0.00    +0.149 C 
BRANCH  15  16
ATOM     16  C   LYS A  11      -0.305  21.673 -12.436  0.00  0.00    +0.241 C 
ATOM     17  N   LEU A  12      -1.033  22.576 -11.780  0.00  0.00    -0.297 N 
ATOM     18  H   LEU A  12      -1.223  23.485 -12.248  0.00  0.00    +0.150 HD
ATOM     19  O   LYS A  11      -0.001  20.576 -11.972  0.00  0.00    -0.273 OA
BRANCH  17  20
ATOM     20  CA  LEU A  12      -1.582  22.362 -10.435  0.00  0.00    +0.149 C 
BRANCH  20  21
ATOM     21  C   LEU A  12      -3.130  22.369 -10.455  0.00  0.00    +0.241 C 
ATOM     22  N   ARG A  13      -3.736  21.187 -10.375  0.00  0.00    -0.297 N 
ATOM     23  H   ARG A  13      -3.156  20.325 -10.335  0.00  0.00    +0.150 HD
ATOM     24  O   LEU A  12      -3.753  23.405 -10.588  0.00  0.00    -0.273 OA
BRANCH  22  25
ATOM     25  CA  ARG A  13      -5.206  21.061 -10.341  0.00  0.00    +0.149 C 
BRANCH  25  26
ATOM     26  C   ARG A  13      -5.658  20.294  -9.106  0.00  0.00    +0.241 C 
ATOM     27  N   HIS A  14      -6.443  20.941  -8.259  0.00  0.00    -0.298 N 
ATOM     28  H   HIS A  14      -6.709  21.926  -8.460  0.00  0.00    +0.150 HD
ATOM     29  O   ARG A  13      -5.309  19.130  -8.941  0.00  0.00    -0.273 OA
BRANCH  27  30
ATOM     30  CA  HIS A  14      -6.941  20.298  -7.049  0.00  0.00    +0.143 C 
BRANCH  30  31
ATOM     31  C   HIS A  14      -8.111  21.136  -6.526  0.00  0.00    +0.227 C 
ATOM     32  O   HIS A  14      -8.171  22.346  -6.747  0.00  0.00    -0.286 OA
ENDBRANCH  30  31
BRANCH  30  33
ATOM     33  CB  HIS A  14      -5.805  20.154  -6.015  0.00  0.00    +0.075 C 
BRANCH  33  34
ATOM     34  CG  HIS A  14      -6.195  19.462  -4.745  0.00  0.00    +0.082 A 
ATOM     35  CD2 HIS A  14      -6.791  19.926  -3.621  0.00  0.00    +0.115 A 
ATOM     36  NE2 HIS A  14      -6.872  18.869  -2.741  0.00  0.00    -0.221 NA
ATOM     37  CE1 HIS A  14      -6.361  17.791  -3.311  0.00  0.00    +0.199 A 
ATOM     38  ND1 HIS A  14      -5.927  18.128  -4.509  0.00  0.00    -0.227 NA
ENDBRANCH  33  34
ENDBRANCH  30  33
ENDBRANCH  27  30
ENDBRANCH  25  26
BRANCH  25  39
ATOM     39  CB  ARG A  13      -5.738  20.344 -11.599  0.00  0.00    +0.033 C 
BRANCH  39  40
ATOM     40  CG  ARG A  13      -7.191  19.788 -11.474  0.00  0.00    +0.045 C 
BRANCH  40  41
ATOM     41  CD  ARG A  13      -7.834  19.372 -12.841  0.00  0.00    +0.174 C 
BRANCH  41  42
ATOM     42  NE  ARG A  13      -7.998  20.571 -13.670  0.00  0.00    -0.265 N 
ATOM     43  HE  ARG A  13      -8.832  21.166 -13.494  0.00  0.00    +0.259 HD
ATOM     44  CZ  ARG A  13      -7.161  20.955 -14.630  0.00  0.00    +0.342 C 
ATOM     45  NH2 ARG A  13      -6.104  20.200 -14.951  0.00  0.00    -0.292 N 
ATOM     46 HH21 ARG A  13      -5.932  19.306 -14.449  0.00  0.00    +0.255 HD
ATOM     47 HH22 ARG A  13      -5.454  20.507 -15.703  0.00  0.00    +0.255 HD
ATOM     48  NH1 ARG A  13      -7.396  22.080 -15.284  0.00  0.00    -0.292 N 
ATOM     49 HH11 ARG A  13      -8.229  22.656 -15.046  0.00  0.00    +0.255 HD
ATOM     50 HH12 ARG A  13      -6.748  22.389 -16.036  0.00  0.00    +0.255 HD
ENDBRANCH  41  42
ENDBRANCH  40  41
ENDBRANCH  39  40
ENDBRANCH  25  39
ENDBRANCH  22  25
ENDBRANCH  20  21
BRANCH  20  51
ATOM     51  CB  LEU A  12      -0.985  23.379  -9.444  0.00  0.00    +0.029 C 
BRANCH  51  52
ATOM     52  CG  LEU A  12       0.537  23.211  -9.155  0.00  0.00    +0.002 C 
ATOM     53  CD2 LEU A  12       1.164  24.349  -8.323  0.00  0.00    +0.000 C 
ATOM     54  CD1 LEU A  12       0.878  21.875  -8.506  0.00  0.00    +0.000 C 
ENDBRANCH  51  52
ENDBRANCH  20  51
ENDBRANCH  17  20
ENDBRANCH  15  16
BRANCH  15  55
ATOM     55  CB  LYS A  11       1.663  22.129 -13.948  0.00  0.00    +0.029 C 
BRANCH  55  56
ATOM     56  CG  LYS A  11       2.164  22.541 -15.347  0.00  0.00    +0.000 C 
BRANCH  56  57
ATOM     57  CD  LYS A  11       3.561  23.156 -15.325  0.00  0.00    -0.024 C 
BRANCH  57  58
ATOM     58  CE  LYS A  11       4.643  22.097 -15.157  0.00  0.00    -0.086 C 
BRANCH  58  59
ATOM     59  NZ  LYS A  11       5.985  22.693 -14.860  0.00  0.00    +0.380 N 
ATOM     60  HZ1 LYS A  11       5.932  23.241 -13.978  0.00  0.00    -0.089 HD
ATOM     61  HZ2 LYS A  11       6.686  21.932 -14.755  0.00  0.00    -0.089 HD
ATOM     62  HZ3 LYS A  11       6.266  23.318 -15.642  0.00  0.00    -0.089 HD
ENDBRANCH  58  59
ENDBRANCH  57  58
ENDBRANCH  56  57
ENDBRANCH  55  56
ENDBRANCH  15  55
ENDBRANCH  12  15
ENDBRANCH  10  11
BRANCH  10  63
ATOM     63  CB  LYS A  10      -1.431  25.028 -16.876  0.00  0.00    +0.029 C 
BRANCH  63  64
ATOM     64  CG  LYS A  10      -1.993  26.200 -17.655  0.00  0.00    +0.000 C 
BRANCH  64  65
ATOM     65  CD  LYS A  10      -1.196  26.370 -18.958  0.00  0.00    -0.024 C 
BRANCH  65  66
ATOM     66  CE  LYS A  10      -1.291  27.777 -19.513  0.00  0.00    -0.086 C 
BRANCH  66  67
ATOM     67  NZ  LYS A  10      -0.171  28.074 -20.454  0.00  0.00    +0.380 N 
ATOM     68  HZ1 LYS A  10       0.735  27.979 -19.953  0.00  0.00    -0.089 HD
ATOM     69  HZ2 LYS A  10      -0.270  29.045 -20.813  0.00  0.00    -0.089 HD
ATOM     70  HZ3 LYS A  10      -0.201  27.404 -21.249  0.00  0.00    -0.089 HD
ENDBRANCH  66  67
ENDBRANCH  65  66
ENDBRANCH  64  65
ENDBRANCH  63  64
ENDBRANCH  10  63
ENDBRANCH   8  10
ENDBRANCH   5   6
BRANCH   5  71
ATOM     71  CB  MET A   9      -2.357  28.304 -12.264  0.00  0.00    +0.041 C 
BRANCH  71  72
ATOM     72  CG  MET A   9      -1.770  29.329 -11.327  0.00  0.00    +0.060 C 
BRANCH  72  73
ATOM     73  SD  MET A   9      -2.841  30.716 -10.978  0.00  0.00    -0.139 S 
ATOM     74  CE  MET A   9      -3.576  31.056 -12.581  0.00  0.00    +0.069 C 
ENDBRANCH  72  73
ENDBRANCH  71  72
ENDBRANCH   5  71
ENDBRANCH   3   5
BRANCH   1  75
ATOM     75  CA  VAL A   8       2.265  27.188 -12.970  0.00  0.00    +0.149 C 
BRANCH  75  77
ATOM     76  C   GLN A   7       2.256  27.444 -15.417  0.00  0.00    +0.241 C 
ATOM     77  N   VAL A   8       2.183  27.969 -14.198  0.00  0.00    -0.297 N 
ATOM     78  H   VAL A   8       2.060  28.998 -14.116  0.00  0.00    +0.150 HD
ATOM     79  O   GLN A   7       2.464  26.250 -15.626  0.00  0.00    -0.273 OA
BRANCH  76  80
ATOM     80  CA  GLN A   7       2.095  28.429 -16.575  0.00  0.00    +0.149 C 
BRANCH  80  83
ATOM     81  C   ALA A   6      -0.049  29.440 -15.835  0.00  0.00    +0.241 C 
ATOM     82  O   ALA A   6      -0.681  28.390 -15.876  0.00  0.00    -0.273 OA
ATOM     83  N   GLN A   7       1.224  29.555 -16.238  0.00  0.00    -0.297 N 
ATOM     84  H   GLN A   7       1.621  30.513 -16.317  0.00  0.00    +0.150 HD
BRANCH  81  85
ATOM     85  CA  ALA A   6      -0.724  30.717 -15.317  0.00  0.00    +0.149 C 
ATOM     86  CB  ALA A   6      -1.540  31.385 -16.429  0.00  0.00    +0.031 C 
BRANCH  85  89
ATOM     87  C   GLU A   5       0.873  31.426 -13.616  0.00  0.00    +0.241 C 
ATOM     88  O   GLU A   5       0.685  30.426 -12.941  0.00  0.00    -0.273 OA
ATOM     89  N   ALA A   6       0.240  31.660 -14.760  0.00  0.00    -0.297 N 
ATOM     90  H   ALA A   6       0.437  32.542 -15.274  0.00  0.00    +0.150 HD
BRANCH  87  91
ATOM     91  CA  GLU A   5       1.874  32.485 -13.156  0.00  0.00    +0.149 C 
BRANCH  91  94
ATOM     92  C   GLN A   4       3.803  32.048 -14.636  0.00  0.00    +0.241 C 
ATOM     93  O   GLN A   4       4.002  30.921 -14.185  0.00  0.00    -0.273 OA
ATOM     94  N   GLU A   5       2.821  32.853 -14.216  0.00  0.00    -0.297 N 
ATOM     95  H   GLU A   5       2.723  33.787 -14.663  0.00  0.00    +0.150 HD
BRANCH  92  96
ATOM     96  CA  GLN A   4       4.665  32.587 -15.773  0.00  0.00    +0.149 C 
BRANCH  96  98
ATOM     97  C   LEU A   3       2.953  33.477 -17.232  0.00  0.00    +0.241 C 
ATOM     98  N   GLN A   4       3.967  33.699 -16.402  0.00  0.00    -0.297 N 
ATOM     99  H   GLN A   4       4.264  34.675 -16.200  0.00  0.00    +0.150 HD
ATOM    100  O   LEU A   3       2.617  32.347 -17.567  0.00  0.00    -0.273 OA
BRANCH  97 101
ATOM    101  CA  LEU A   3       2.217  34.695 -17.788  0.00  0.00    +0.149 C 
BRANCH 101 104
ATOM    102  C   PHE A   2       2.691  36.469 -16.182  0.00  0.00    +0.241 C 
ATOM    103  O   PHE A   2       2.025  35.924 -15.322  0.00  0.00    -0.273 OA
ATOM    104  N   LEU A   3       2.837  35.959 -17.400  0.00  0.00    -0.297 N 
ATOM    105  H   LEU A   3       3.410  36.475 -18.098  0.00  0.00    +0.150 HD
BRANCH 102 106
ATOM    106  CA  PHE A   2       3.414  37.782 -15.888  0.00  0.00    +0.153 C 
BRANCH 106 109
ATOM    107  C   ALA A   1       5.708  36.955 -15.792  0.00  0.00    +0.238 C 
ATOM    108  O   ALA A   1       5.513  36.332 -14.748  0.00  0.00    -0.274 OA
ATOM    109  N   PHE A   2       4.784  37.709 -16.378  0.00  0.00    -0.297 N 
ATOM    110  H   PHE A   2       5.048  38.266 -17.215  0.00  0.00    +0.150 HD
BRANCH 107 111
ATOM    111  CA  ALA A   1       7.069  36.922 -16.467  0.00  0.00    +0.145 C 
ATOM    112  CB  ALA A   1       7.970  37.978 -15.839  0.00  0.00    +0.028 C 
BRANCH 111 113
ATOM    113  N   ALA A   1       7.028  37.073 -17.942  0.00  0.00    -0.238 NA
ATOM    114  H   ALA A   1       7.424  37.942 -18.355  0.00  0.00    +0.142 HD
ENDBRANCH 111 113
ENDBRANCH 107 111
ENDBRANCH 106 109
BRANCH 106 115
ATOM    115  CB  PHE A   2       2.699  38.972 -16.532  0.00  0.00    +0.055 C 
BRANCH 115 116
ATOM    116  CG  PHE A   2       1.219  39.041 -16.249  0.00  0.00    -0.020 A 
ATOM    117  CD2 PHE A   2       0.741  39.751 -15.161  0.00  0.00    -0.004 A 
ATOM    118  CE2 PHE A   2      -0.626  39.838 -14.916  0.00  0.00    -0.000 A 
ATOM    119  CZ  PHE A   2      -1.532  39.217 -15.767  0.00  0.00    -0.000 A 
ATOM    120  CE1 PHE A   2      -1.073  38.505 -16.863  0.00  0.00    -0.000 A 
ATOM    121  CD1 PHE A   2       0.297  38.423 -17.104  0.00  0.00    -0.004 A 
ENDBRANCH 115 116
ENDBRANCH 106 115
ENDBRANCH 102 106
ENDBRANCH 101 104
BRANCH 101 122
ATOM    122  CB  LEU A   3       2.127  34.593 -19.316  0.00  0.00    +0.029 C 
BRANCH 122 123
ATOM    123  CG  LEU A   3       1.077  35.463 -20.005  0.00  0.00    +0.002 C 
ATOM    124  CD2 LEU A   3      -0.325  34.947 -19.682  0.00  0.00    +0.000 C 
ATOM    125  CD1 LEU A   3       1.326  35.504 -21.515  0.00  0.00    +0.000 C 
ENDBRANCH 122 123
ENDBRANCH 101 122
ENDBRANCH  97 101
ENDBRANCH  96  98
BRANCH  96 126
ATOM    126  CB  GLN A   4       6.061  32.997 -15.295  0.00  0.00    +0.039 C 
BRANCH 126 127
ATOM    127  CG  GLN A   4       7.101  31.868 -15.378  0.00  0.00    +0.087 C 
BRANCH 127 128
ATOM    128  CD  GLN A   4       8.441  32.302 -16.004  0.00  0.00    +0.219 C 
ATOM    129  OE1 GLN A   4       9.396  31.517 -16.061  0.00  0.00    -0.275 OA
ATOM    130  NE2 GLN A   4       8.513  33.549 -16.475  0.00  0.00    -0.329 N 
ATOM    131 HE21 GLN A   4       7.688  34.178 -16.408  0.00  0.00    +0.145 HD
ATOM    132 HE22 GLN A   4       9.394  33.891 -16.909  0.00  0.00    +0.145 HD
ENDBRANCH 127 128
ENDBRANCH 126 127
ENDBRANCH  96 126
ENDBRANCH  92  96
ENDBRANCH  91  94
BRANCH  91 133
ATOM    133  CB  GLU A   5       1.127  33.717 -12.636  0.00  0.00    +0.041 C 
BRANCH 133 134
ATOM    134  CG  GLU A   5       0.115  33.403 -11.566  0.00  0.00    +0.116 C 
BRANCH 134 135
ATOM    135  CD  GLU A   5      -0.568  34.638 -11.016  0.00  0.00    +0.365 C 
ATOM    136  OE2 GLU A   5      -1.173  34.535  -9.935  0.00  0.00    -0.246 OA
ATOM    137  OE1 GLU A   5      -0.512  35.714 -11.655  0.00  0.00    -0.246 OA
ENDBRANCH 134 135
ENDBRANCH 133 134
ENDBRANCH  91 133
ENDBRANCH  87  91
ENDBRANCH  85  89
ENDBRANCH  81  85
ENDBRANCH  80  83
BRANCH  80 138
ATOM    138  CB  GLN A   7       3.483  28.951 -16.945  0.00  0.00    +0.039 C 
BRANCH 138 139
ATOM    139  CG  GLN A   7       3.845  28.912 -18.429  0.00  0.00    +0.087 C 
BRANCH 139 140
ATOM    140  CD  GLN A   7       5.363  28.950 -18.662  0.00  0.00    +0.219 C 
ATOM    141  NE2 GLN A   7       6.090  29.599 -17.747  0.00  0.00    -0.329 N 
ATOM    142 HE21 GLN A   7       5.622  30.049 -16.935  0.00  0.00    +0.145 HD
ATOM    143 HE22 GLN A   7       7.124  29.654 -17.847  0.00  0.00    +0.145 HD
ATOM    144  OE1 GLN A   7       5.872  28.398 -19.646  0.00  0.00    -0.275 OA
ENDBRANCH 139 140
ENDBRANCH 138 139
ENDBRANCH  80 138
ENDBRANCH  76  80
ENDBRANCH  75  77
BRANCH  75 145
ATOM    145  CB  VAL A   8       2.874  28.046 -11.818  0.00  0.00    +0.027 C 
ATOM    146  CG2 VAL A   8       2.240  27.729 -10.470  0.00  0.00    +0.002 C 
ATOM    147  CG1 VAL A   8       4.392  27.882 -11.788  0.00  0.00    +0.002 C 
ENDBRANCH  75 145
ENDBRANCH   1  75
TORSDOF 63
REMARK  Name = ../refined-set-2016/3f3t/3f3t_pocket.pdb
REMARK  251 active torsions:
REMARK  status: ('A' for Active; 'I' for Inactive)
REMARK    1  A    between atoms: _1  and  _3
REMARK    2  A    between atoms: _3  and  _4
REMARK    3  A    between atoms: _3  and  _6
REMARK    4  A    between atoms: _6  and  _7
REMARK    5  A    between atoms: _10  and  _12
REMARK    6  A    between atoms: _12  and  _13
REMARK    7  A    between atoms: _12  and  _15
REMARK    8  A    between atoms: _15  and  _16
REMARK    9  A    between atoms: _16  and  _17
REMARK   10  A    between atoms: _20  and  _22
REMARK   11  A    between atoms: _22  and  _23
REMARK   12  A    between atoms: _22  and  _25
REMARK   13  A    between atoms: _28  and  _30
REMARK   14  A    between atoms: _30  and  _31
REMARK   15  A    between atoms: _30  and  _33
REMARK   16  A    between atoms: _33  and  _34
REMARK   17  A    between atoms: _44  and  _46
REMARK   18  A    between atoms: _46  and  _47
REMARK   19  A    between atoms: _46  and  _49
REMARK   20  A    between atoms: _49  and  _50
REMARK   21  A    between atoms: _50  and  _51
REMARK   22  A    between atoms: _53  and  _55
REMARK   23  A    between atoms: _55  and  _56
REMARK   24  A    between atoms: _55  and  _58
REMARK   25  A    between atoms: _61  and  _63
REMARK   26  A    between atoms: _63  and  _64
REMARK   27  A    between atoms: _67  and  _69
REMARK   28  A    between atoms: _69  and  _70
REMARK   29  A    between atoms: _69  and  _72
REMARK   30  A    between atoms: _72  and  _73
REMARK   31  A    between atoms: _76  and  _78
REMARK   32  A    between atoms: _78  and  _79
REMARK   33  A    between atoms: _78  and  _81
REMARK   34  A    between atoms: _81  and  _82
REMARK   35  A    between atoms: _82  and  _83
REMARK   36  A    between atoms: _83  and  _84
REMARK   37  A    between atoms: _84  and  _85
REMARK   38  A    between atoms: _89  and  _91
REMARK   39  A    between atoms: _91  and  _92
REMARK   40  A    between atoms: _91  and  _94
REMARK   41  A    between atoms: _94  and  _95
REMARK   42  A    between atoms: _98  and  _100
REMARK   43  A    between atoms: _100  and  _101
REMARK   44  A    between atoms: _100  and  _103
REMARK   45  A    between atoms: _103  and  _104
REMARK   46  A    between atoms: _104  and  _105
REMARK   47  A    between atoms: _107  and  _109
REMARK   48  A    between atoms: _109  and  _110
REMARK   49  A    between atoms: _113  and  _115
REMARK   50  A    between atoms: _115  and  _116
REMARK   51  A    between atoms: _115  and  _118
REMARK   52  A    between atoms: _118  and  _119
REMARK   53  A    between atoms: _125  and  _127
REMARK   54  A    between atoms: _127  and  _128
REMARK   55  A    between atoms: _127  and  _130
REMARK   56  A    between atoms: _130  and  _131
REMARK   57  A    between atoms: _134  and  _136
REMARK   58  A    between atoms: _136  and  _137
REMARK   59  A    between atoms: _136  and  _139
REMARK   60  A    between atoms: _139  and  _140
REMARK   61  A    between atoms: _140  and  _141
REMARK   62  A    between atoms: _146  and  _148
REMARK   63  A    between atoms: _148  and  _149
REMARK   64  A    between atoms: _148  and  _151
REMARK   65  A    between atoms: _151  and  _152
REMARK   66  A    between atoms: _152  and  _153
REMARK   67  A    between atoms: _156  and  _158
REMARK   68  A    between atoms: _158  and  _159
REMARK   69  A    between atoms: _162  and  _164
REMARK   70  A    between atoms: _164  and  _165
REMARK   71  A    between atoms: _164  and  _167
REMARK   72  A    between atoms: _167  and  _168
REMARK   73  A    between atoms: _168  and  _169
REMARK   74  A    between atoms: _174  and  _176
REMARK   75  A    between atoms: _176  and  _177
REMARK   76  A    between atoms: _176  and  _179
REMARK   77  A    between atoms: _182  and  _184
REMARK   78  A    between atoms: _184  and  _185
REMARK   79  A    between atoms: _184  and  _187
REMARK   80  A    between atoms: _187  and  _188
REMARK   81  A    between atoms: _188  and  _189
REMARK   82  A    between atoms: _191  and  _193
REMARK   83  A    between atoms: _193  and  _194
REMARK   84  A    between atoms: _193  and  _196
REMARK   85  A    between atoms: _196  and  _197
REMARK   86  A    between atoms: _197  and  _198
REMARK   87  A    between atoms: _198  and  _199
REMARK   88  A    between atoms: _199  and  _200
REMARK   89  A    between atoms: _204  and  _206
REMARK   90  A    between atoms: _206  and  _207
REMARK   91  A    between atoms: _206  and  _209
REMARK   92  A    between atoms: _209  and  _210
REMARK   93  A    between atoms: _210  and  _211
REMARK   94  A    between atoms: _211  and  _212
REMARK   95  A    between atoms: _212  and  _213
REMARK   96  A    between atoms: _217  and  _219
REMARK   97  A    between atoms: _219  and  _220
REMARK   98  A    between atoms: _219  and  _222
REMARK   99  A    between atoms: _222  and  _223
REMARK  100  A    between atoms: _226  and  _228
REMARK  101  A    between atoms: _228  and  _229
REMARK  102  A    between atoms: _228  and  _231
REMARK  103  A    between atoms: _231  and  _232
REMARK  104  A    between atoms: _232  and  _233
REMARK  105  A    between atoms: _233  and  _234
REMARK  106  A    between atoms: _243  and  _245
REMARK  107  A    between atoms: _245  and  _246
REMARK  108  A    between atoms: _245  and  _248
REMARK  109  A    between atoms: _248  and  _249
REMARK  110  A    between atoms: _254  and  _256
REMARK  111  A    between atoms: _256  and  _257
REMARK  112  A    between atoms: _256  and  _259
REMARK  113  A    between atoms: _259  and  _260
REMARK  114  A    between atoms: _260  and  _261
REMARK  115  A    between atoms: _261  and  _262
REMARK  116  A    between atoms: _262  and  _263
REMARK  117  A    between atoms: _267  and  _269
REMARK  118  A    between atoms: _269  and  _270
REMARK  119  A    between atoms: _269  and  _272
REMARK  120  A    between atoms: _272  and  _273
REMARK  121  A    between atoms: _276  and  _278
REMARK  122  A    between atoms: _278  and  _279
REMARK  123  A    between atoms: _278  and  _281
REMARK  124  A    between atoms: _284  and  _286
REMARK  125  A    between atoms: _286  and  _287
REMARK  126  A    between atoms: _286  and  _289
REMARK  127  A    between atoms: _289  and  _290
REMARK  128  A    between atoms: _290  and  _291
REMARK  129  A    between atoms: _296  and  _298
REMARK  130  A    between atoms: _298  and  _299
REMARK  131  A    between atoms: _298  and  _301
REMARK  132  A    between atoms: _301  and  _302
REMARK  133  A    between atoms: _305  and  _307
REMARK  134  A    between atoms: _307  and  _308
REMARK  135  A    between atoms: _307  and  _310
REMARK  136  A    between atoms: _310  and  _311
REMARK  137  A    between atoms: _316  and  _317
REMARK  138  A    between atoms: _319  and  _321
REMARK  139  A    between atoms: _321  and  _322
REMARK  140  A    between atoms: _325  and  _327
REMARK  141  A    between atoms: _327  and  _328
REMARK  142  A    between atoms: _327  and  _330
REMARK  143  A    between atoms: _330  and  _331
REMARK  144  A    between atoms: _336  and  _337
REMARK  145  A    between atoms: _339  and  _341
REMARK  146  A    between atoms: _341  and  _342
REMARK  147  A    between atoms: _341  and  _344
REMARK  148  A    between atoms: _344  and  _345
REMARK  149  A    between atoms: _348  and  _350
REMARK  150  A    between atoms: _350  and  _351
REMARK  151  A    between atoms: _350  and  _353
REMARK  152  A    between atoms: _356  and  _358
REMARK  153  A    between atoms: _358  and  _359
REMARK  154  A    between atoms: _358  and  _361
REMARK  155  A    between atoms: _361  and  _362
REMARK  156  A    between atoms: _365  and  _367
REMARK  157  A    between atoms: _367  and  _368
REMARK  158  A    between atoms: _367  and  _370
REMARK  159  A    between atoms: _370  and  _371
REMARK  160  A    between atoms: _371  and  _372
REMARK  161  A    between atoms: _375  and  _377
REMARK  162  A    between atoms: _377  and  _378
REMARK  163  A    between atoms: _377  and  _380
REMARK  164  A    between atoms: _380  and  _381
REMARK  165  A    between atoms: _386  and  _387
REMARK  166  A    between atoms: _389  and  _391
REMARK  167  A    between atoms: _391  and  _392
REMARK  168  A    between atoms: _391  and  _394
REMARK  169  A    between atoms: _394  and  _395
REMARK  170  A    between atoms: _395  and  _396
REMARK  171  A    between atoms: _398  and  _400
REMARK  172  A    between atoms: _400  and  _401
REMARK  173  A    between atoms: _403  and  _405
REMARK  174  A    between atoms: _405  and  _406
REMARK  175  A    between atoms: _405  and  _408
REMARK  176  A    between atoms: _408  and  _409
REMARK  177  A    between atoms: _409  and  _410
REMARK  178  A    between atoms: _412  and  _414
REMARK  179  A    between atoms: _414  and  _415
REMARK  180  A    between atoms: _414  and  _417
REMARK  181  A    between atoms: _417  and  _418
REMARK  182  A    between atoms: _423  and  _424
REMARK  183  A    between atoms: _426  and  _428
REMARK  184  A    between atoms: _428  and  _429
REMARK  185  A    between atoms: _428  and  _431
REMARK  186  A    between atoms: _434  and  _436
REMARK  187  A    between atoms: _436  and  _437
REMARK  188  A    between atoms: _436  and  _439
REMARK  189  A    between atoms: _439  and  _440
REMARK  190  A    between atoms: _445  and  _446
REMARK  191  A    between atoms: _448  and  _450
REMARK  192  A    between atoms: _450  and  _451
REMARK  193  A    between atoms: _450  and  _453
REMARK  194  A    between atoms: _456  and  _458
REMARK  195  A    between atoms: _458  and  _459
REMARK  196  A    between atoms: _458  and  _461
REMARK  197  A    between atoms: _461  and  _462
REMARK  198  A    between atoms: _467  and  _469
REMARK  199  A    between atoms: _469  and  _470
REMARK  200  A    between atoms: _469  and  _472
REMARK  201  A    between atoms: _472  and  _473
REMARK  202  A    between atoms: _473  and  _474
REMARK  203  A    between atoms: _474  and  _475
REMARK  204  A    between atoms: _484  and  _486
REMARK  205  A    between atoms: _486  and  _487
REMARK  206  A    between atoms: _486  and  _489
REMARK  207  A    between atoms: _489  and  _490
REMARK  208  A    between atoms: _493  and  _495
REMARK  209  A    between atoms: _495  and  _496
REMARK  210  A    between atoms: _495  and  _498
REMARK  211  A    between atoms: _498  and  _499
REMARK  212  A    between atoms: _502  and  _504
REMARK  213  A    between atoms: _504  and  _505
REMARK  214  A    between atoms: _508  and  _510
REMARK  215  A    between atoms: _510  and  _511
REMARK  216  A    between atoms: _510  and  _513
REMARK  217  A    between atoms: _513  and  _514
REMARK  218  A    between atoms: _519  and  _521
REMARK  219  A    between atoms: _521  and  _522
REMARK  220  A    between atoms: _521  and  _524
REMARK  221  A    between atoms: _524  and  _525
REMARK  222  A    between atoms: _528  and  _530
REMARK  223  A    between atoms: _530  and  _531
REMARK  224  A    between atoms: _530  and  _533
REMARK  225  A    between atoms: _533  and  _534
REMARK  226  A    between atoms: _537  and  _539
REMARK  227  A    between atoms: _539  and  _540
REMARK  228  A    between atoms: _539  and  _542
REMARK  229  A    between atoms: _542  and  _543
REMARK  230  A    between atoms: _543  and  _544
REMARK  231  A    between atoms: _544  and  _545
REMARK  232  A    between atoms: _545  and  _546
REMARK  233  A    between atoms: _550  and  _552
REMARK  234  A    between atoms: _552  and  _553
REMARK  235  A    between atoms: _552  and  _555
REMARK  236  A    between atoms: _558  and  _560
REMARK  237  A    between atoms: _560  and  _561
REMARK  238  A    between atoms: _564  and  _566
REMARK  239  A    between atoms: _566  and  _567
REMARK  240  A    between atoms: _566  and  _569
REMARK  241  A    between atoms: _569  and  _570
REMARK  242  A    between atoms: _573  and  _575
REMARK  243  A    between atoms: _575  and  _576
REMARK  244  A    between atoms: _575  and  _578
REMARK  245  A    between atoms: _578  and  _579
REMARK  246  A    between atoms: _585  and  _587
REMARK  247  A    between atoms: _587  and  _588
REMARK  248  A    between atoms: _590  and  _592
REMARK  249  A    between atoms: _592  and  _593
REMARK  250  A    between atoms: _592  and  _595
REMARK  251  A    between atoms: _595  and  _596
REMARK                            x       y       z     vdW  Elec       q    Type
REMARK                         _______ _______ _______ _____ _____    ______ ____
ROOT
ATOM      1  CA  GLN A   4      -8.374  27.024 -10.335  0.00  0.00    +0.149 C 
ENDROOT
BRANCH   1   2
ATOM      2  C   GLN A   4      -8.295  28.004 -11.496  0.00  0.00    +0.241 C 
ATOM      3  O   GLN A   4      -9.059  28.985 -11.552  0.00  0.00    -0.273 OA
ATOM      4  N   LEU A   5      -7.371  27.717 -12.418  0.00  0.00    -0.297 N 
ATOM      5  H   LEU A   5      -6.697  26.950 -12.223  0.00  0.00    +0.150 HD
BRANCH   4   6
ATOM      6  CA  LEU A   5      -7.265  28.433 -13.690  0.00  0.00    +0.149 C 
BRANCH   6   7
ATOM      7  C   LEU A   5      -8.422  28.092 -14.598  0.00  0.00    +0.241 C 
ATOM      8  O   LEU A   5      -8.733  26.918 -14.793  0.00  0.00    -0.273 OA
ATOM      9  N   TYR A   6      -9.044  29.113 -15.175  0.00  0.00    -0.297 N 
ATOM     10  H   TYR A   6      -8.779  30.083 -14.911  0.00  0.00    +0.150 HD
BRANCH   9  11
ATOM     11  CA  TYR A   6     -10.091  28.908 -16.171  0.00  0.00    +0.153 C 
BRANCH  11  12
ATOM     12  C   TYR A   6      -9.596  29.154 -17.593  0.00  0.00    +0.241 C 
ATOM     13  N   ALA A   7      -8.890  30.255 -17.799  0.00  0.00    -0.298 N 
ATOM     14  H   ALA A   7      -8.516  30.784 -16.986  0.00  0.00    +0.150 HD
ATOM     15  O   TYR A   6      -9.840  28.357 -18.489  0.00  0.00    -0.273 OA
BRANCH  13  16
ATOM     16  CA  ALA A   7      -8.631  30.734 -19.147  0.00  0.00    +0.137 C 
ATOM     17  CB  ALA A   7      -9.829  31.489 -19.662  0.00  0.00    +0.030 C 
BRANCH  16  18
ATOM     18  C   ALA A   7      -7.414  31.630 -19.149  0.00  0.00    +0.227 C 
ATOM     19  O   ALA A   7      -6.960  32.097 -18.098  0.00  0.00    -0.286 OA
ENDBRANCH  16  18
ENDBRANCH  13  16
ENDBRANCH  11  12
BRANCH  11  20
ATOM     20  CB  TYR A   6     -11.300  29.785 -15.860  0.00  0.00    +0.055 C 
BRANCH  20  21
ATOM     21  CG  TYR A   6     -12.216  29.182 -14.821  0.00  0.00    -0.020 A 
ATOM     22  CD2 TYR A   6     -11.821  28.069 -14.068  0.00  0.00    -0.001 A 
ATOM     23  CE2 TYR A   6     -12.655  27.509 -13.110  0.00  0.00    +0.036 A 
ATOM     24  CZ  TYR A   6     -13.905  28.055 -12.886  0.00  0.00    +0.134 A 
ATOM     25  CE1 TYR A   6     -14.324  29.167 -13.608  0.00  0.00    +0.036 A 
ATOM     26  CD1 TYR A   6     -13.475  29.725 -14.576  0.00  0.00    -0.001 A 
BRANCH  24  27
ATOM     27  OH  TYR A   6     -14.737  27.491 -11.935  0.00  0.00    -0.506 OA
ATOM     28  HH  TYR A   6     -14.284  26.714 -11.521  0.00  0.00    +0.292 HD
ENDBRANCH  24  27
ENDBRANCH  20  21
ENDBRANCH  11  20
ENDBRANCH   9  11
ENDBRANCH   6   7
BRANCH   6  29
ATOM     29  CB  LEU A   5      -5.969  28.081 -14.416  0.00  0.00    +0.029 C 
BRANCH  29  30
ATOM     30  CG  LEU A   5      -5.770  28.841 -15.736  0.00  0.00    +0.002 C 
ATOM     31  CD2 LEU A   5      -5.697  30.348 -15.479  0.00  0.00    +0.000 C 
ATOM     32  CD1 LEU A   5      -4.547  28.345 -16.515  0.00  0.00    +0.000 C 
ENDBRANCH  29  30
ENDBRANCH   6  29
ENDBRANCH   4   6
ENDBRANCH   1   2
BRANCH   1  35
ATOM     33  C   VAL A   3      -7.503  27.695  -8.180  0.00  0.00    +0.241 C 
ATOM     34  O   VAL A   3      -6.366  27.326  -8.480  0.00  0.00    -0.273 OA
ATOM     35  N   GLN A   4      -8.506  27.683  -9.041  0.00  0.00    -0.297 N 
ATOM     36  H   GLN A   4      -9.401  28.150  -8.792  0.00  0.00    +0.150 HD
BRANCH  33  37
ATOM     37  CA  VAL A   3      -7.826  28.191  -6.779  0.00  0.00    +0.149 C 
BRANCH  37  39
ATOM     38  C   LEU A   2      -7.075  26.067  -5.863  0.00  0.00    +0.241 C 
ATOM     39  N   VAL A   3      -7.082  27.396  -5.805  0.00  0.00    -0.297 N 
ATOM     40  H   VAL A   3      -6.549  27.877  -5.053  0.00  0.00    +0.150 HD
ATOM     41  O   LEU A   2      -7.674  25.431  -6.757  0.00  0.00    -0.273 OA
BRANCH  38  42
ATOM     42  CA  LEU A   2      -6.263  25.339  -4.810  0.00  0.00    +0.149 C 
BRANCH  42  45
ATOM     43  C   LYS A   1      -7.410  24.160  -3.007  0.00  0.00    +0.238 C 
ATOM     44  O   LYS A   1      -6.886  24.843  -2.137  0.00  0.00    -0.274 OA
ATOM     45  N   LEU A   2      -7.048  24.216  -4.279  0.00  0.00    -0.297 N 
ATOM     46  H   LEU A   2      -7.326  23.445  -4.919  0.00  0.00    +0.150 HD
BRANCH  43  47
ATOM     47  CA  LYS A   1      -8.549  23.214  -2.622  0.00  0.00    +0.145 C 
BRANCH  47  48
ATOM     48  N   LYS A   1      -8.863  22.185  -3.616  0.00  0.00    -0.238 NA
ATOM     49  H   LYS A   1      -8.206  21.389  -3.746  0.00  0.00    +0.142 HD
ENDBRANCH  47  48
BRANCH  47  50
ATOM     50  CB  LYS A   1      -8.309  22.624  -1.209  0.00  0.00    +0.026 C 
BRANCH  50  51
ATOM     51  CG  LYS A   1      -9.380  21.626  -0.731  0.00  0.00    -0.000 C 
BRANCH  51  52
ATOM     52  CD  LYS A   1     -10.769  22.283  -0.560  0.00  0.00    -0.024 C 
BRANCH  52  53
ATOM     53  CE  LYS A   1     -11.788  21.219  -0.292  0.00  0.00    -0.086 C 
BRANCH  53  54
ATOM     54  NZ  LYS A   1     -13.021  21.823   0.314  0.00  0.00    +0.380 N 
ATOM     55  HZ1 LYS A   1     -12.773  22.290   1.209  0.00  0.00    -0.089 HD
ATOM     56  HZ2 LYS A   1     -13.720  21.074   0.495  0.00  0.00    -0.089 HD
ATOM     57  HZ3 LYS A   1     -13.422  22.522  -0.344  0.00  0.00    -0.089 HD
ENDBRANCH  53  54
ENDBRANCH  52  53
ENDBRANCH  51  52
ENDBRANCH  50  51
ENDBRANCH  47  50
ENDBRANCH  43  47
ENDBRANCH  42  45
BRANCH  42  58
ATOM     58  CB  LEU A   2      -4.977  24.879  -5.490  0.00  0.00    +0.029 C 
BRANCH  58  59
ATOM     59  CG  LEU A   2      -4.059  23.723  -5.051  0.00  0.00    +0.002 C 
ATOM     60  CD2 LEU A   2      -3.688  23.690  -3.542  0.00  0.00    +0.000 C 
ATOM     61  CD1 LEU A   2      -2.821  23.831  -5.921  0.00  0.00    +0.000 C 
ENDBRANCH  58  59
ENDBRANCH  42  58
ENDBRANCH  38  42
ENDBRANCH  37  39
BRANCH  37  62
ATOM     62  CB  VAL A   3      -7.494  29.685  -6.679  0.00  0.00    +0.027 C 
ATOM     63  CG2 VAL A   3      -7.183  30.024  -5.307  0.00  0.00    +0.002 C 
ATOM     64  CG1 VAL A   3      -8.701  30.517  -7.109  0.00  0.00    +0.002 C 
ENDBRANCH  37  62
ENDBRANCH  33  37
ENDBRANCH   1  35
BRANCH   1  65
ATOM     65  CB  GLN A   4      -9.543  26.050 -10.549  0.00  0.00    +0.039 C 
BRANCH  65  66
ATOM     66  CG  GLN A   4      -9.387  25.132 -11.763  0.00  0.00    +0.087 C 
BRANCH  66  67
ATOM     67  CD  GLN A   4      -8.168  24.224 -11.661  0.00  0.00    +0.219 C 
ATOM     68  OE1 GLN A   4      -8.180  23.209 -10.940  0.00  0.00    -0.275 OA
ATOM     69  NE2 GLN A   4      -7.101  24.586 -12.388  0.00  0.00    -0.329 N 
ATOM     70 HE21 GLN A   4      -6.236  24.010 -12.364  0.00  0.00    +0.145 HD
ATOM     71 HE22 GLN A   4      -7.139  25.443 -12.976  0.00  0.00    +0.145 HD
ENDBRANCH  66  67
ENDBRANCH  65  66
ENDBRANCH   1  65
TORSDOF 30
REMARK  Name = ../refined-set-2016/3f3t/3f3t_pocket.pdb
REMARK  251 active torsions:
REMARK  status: ('A' for Active; 'I' for Inactive)
REMARK    1  A    between atoms: _1  and  _3
REMARK    2  A    between atoms: _3  and  _4
REMARK    3  A    between atoms: _3  and  _6
REMARK    4  A    between atoms: _6  and  _7
REMARK    5  A    between atoms: _10  and  _12
REMARK    6  A    between atoms: _12  and  _13
REMARK    7  A    between atoms: _12  and  _15
REMARK    8  A    between atoms: _15  and  _16
REMARK    9  A    between atoms: _16  and  _17
REMARK   10  A    between atoms: _20  and  _22
REMARK   11  A    between atoms: _22  and  _23
REMARK   12  A    between atoms: _22  and  _25
REMARK   13  A    between atoms: _28  and  _30
REMARK   14  A    between atoms: _30  and  _31
REMARK   15  A    between atoms: _30  and  _33
REMARK   16  A    between atoms: _33  and  _34
REMARK   17  A    between atoms: _44  and  _46
REMARK   18  A    between atoms: _46  and  _47
REMARK   19  A    between atoms: _46  and  _49
REMARK   20  A    between atoms: _49  and  _50
REMARK   21  A    between atoms: _50  and  _51
REMARK   22  A    between atoms: _53  and  _55
REMARK   23  A    between atoms: _55  and  _56
REMARK   24  A    between atoms: _55  and  _58
REMARK   25  A    between atoms: _61  and  _63
REMARK   26  A    between atoms: _63  and  _64
REMARK   27  A    between atoms: _67  and  _69
REMARK   28  A    between atoms: _69  and  _70
REMARK   29  A    between atoms: _69  and  _72
REMARK   30  A    between atoms: _72  and  _73
REMARK   31  A    between atoms: _76  and  _78
REMARK   32  A    between atoms: _78  and  _79
REMARK   33  A    between atoms: _78  and  _81
REMARK   34  A    between atoms: _81  and  _82
REMARK   35  A    between atoms: _82  and  _83
REMARK   36  A    between atoms: _83  and  _84
REMARK   37  A    between atoms: _84  and  _85
REMARK   38  A    between atoms: _89  and  _91
REMARK   39  A    between atoms: _91  and  _92
REMARK   40  A    between atoms: _91  and  _94
REMARK   41  A    between atoms: _94  and  _95
REMARK   42  A    between atoms: _98  and  _100
REMARK   43  A    between atoms: _100  and  _101
REMARK   44  A    between atoms: _100  and  _103
REMARK   45  A    between atoms: _103  and  _104
REMARK   46  A    between atoms: _104  and  _105
REMARK   47  A    between atoms: _107  and  _109
REMARK   48  A    between atoms: _109  and  _110
REMARK   49  A    between atoms: _113  and  _115
REMARK   50  A    between atoms: _115  and  _116
REMARK   51  A    between atoms: _115  and  _118
REMARK   52  A    between atoms: _118  and  _119
REMARK   53  A    between atoms: _125  and  _127
REMARK   54  A    between atoms: _127  and  _128
REMARK   55  A    between atoms: _127  and  _130
REMARK   56  A    between atoms: _130  and  _131
REMARK   57  A    between atoms: _134  and  _136
REMARK   58  A    between atoms: _136  and  _137
REMARK   59  A    between atoms: _136  and  _139
REMARK   60  A    between atoms: _139  and  _140
REMARK   61  A    between atoms: _140  and  _141
REMARK   62  A    between atoms: _146  and  _148
REMARK   63  A    between atoms: _148  and  _149
REMARK   64  A    between atoms: _148  and  _151
REMARK   65  A    between atoms: _151  and  _152
REMARK   66  A    between atoms: _152  and  _153
REMARK   67  A    between atoms: _156  and  _158
REMARK   68  A    between atoms: _158  and  _159
REMARK   69  A    between atoms: _162  and  _164
REMARK   70  A    between atoms: _164  and  _165
REMARK   71  A    between atoms: _164  and  _167
REMARK   72  A    between atoms: _167  and  _168
REMARK   73  A    between atoms: _168  and  _169
REMARK   74  A    between atoms: _174  and  _176
REMARK   75  A    between atoms: _176  and  _177
REMARK   76  A    between atoms: _176  and  _179
REMARK   77  A    between atoms: _182  and  _184
REMARK   78  A    between atoms: _184  and  _185
REMARK   79  A    between atoms: _184  and  _187
REMARK   80  A    between atoms: _187  and  _188
REMARK   81  A    between atoms: _188  and  _189
REMARK   82  A    between atoms: _191  and  _193
REMARK   83  A    between atoms: _193  and  _194
REMARK   84  A    between atoms: _193  and  _196
REMARK   85  A    between atoms: _196  and  _197
REMARK   86  A    between atoms: _197  and  _198
REMARK   87  A    between atoms: _198  and  _199
REMARK   88  A    between atoms: _199  and  _200
REMARK   89  A    between atoms: _204  and  _206
REMARK   90  A    between atoms: _206  and  _207
REMARK   91  A    between atoms: _206  and  _209
REMARK   92  A    between atoms: _209  and  _210
REMARK   93  A    between atoms: _210  and  _211
REMARK   94  A    between atoms: _211  and  _212
REMARK   95  A    between atoms: _212  and  _213
REMARK   96  A    between atoms: _217  and  _219
REMARK   97  A    between atoms: _219  and  _220
REMARK   98  A    between atoms: _219  and  _222
REMARK   99  A    between atoms: _222  and  _223
REMARK  100  A    between atoms: _226  and  _228
REMARK  101  A    between atoms: _228  and  _229
REMARK  102  A    between atoms: _228  and  _231
REMARK  103  A    between atoms: _231  and  _232
REMARK  104  A    between atoms: _232  and  _233
REMARK  105  A    between atoms: _233  and  _234
REMARK  106  A    between atoms: _243  and  _245
REMARK  107  A    between atoms: _245  and  _246
REMARK  108  A    between atoms: _245  and  _248
REMARK  109  A    between atoms: _248  and  _249
REMARK  110  A    between atoms: _254  and  _256
REMARK  111  A    between atoms: _256  and  _257
REMARK  112  A    between atoms: _256  and  _259
REMARK  113  A    between atoms: _259  and  _260
REMARK  114  A    between atoms: _260  and  _261
REMARK  115  A    between atoms: _261  and  _262
REMARK  116  A    between atoms: _262  and  _263
REMARK  117  A    between atoms: _267  and  _269
REMARK  118  A    between atoms: _269  and  _270
REMARK  119  A    between atoms: _269  and  _272
REMARK  120  A    between atoms: _272  and  _273
REMARK  121  A    between atoms: _276  and  _278
REMARK  122  A    between atoms: _278  and  _279
REMARK  123  A    between atoms: _278  and  _281
REMARK  124  A    between atoms: _284  and  _286
REMARK  125  A    between atoms: _286  and  _287
REMARK  126  A    between atoms: _286  and  _289
REMARK  127  A    between atoms: _289  and  _290
REMARK  128  A    between atoms: _290  and  _291
REMARK  129  A    between atoms: _296  and  _298
REMARK  130  A    between atoms: _298  and  _299
REMARK  131  A    between atoms: _298  and  _301
REMARK  132  A    between atoms: _301  and  _302
REMARK  133  A    between atoms: _305  and  _307
REMARK  134  A    between atoms: _307  and  _308
REMARK  135  A    between atoms: _307  and  _310
REMARK  136  A    between atoms: _310  and  _311
REMARK  137  A    between atoms: _316  and  _317
REMARK  138  A    between atoms: _319  and  _321
REMARK  139  A    between atoms: _321  and  _322
REMARK  140  A    between atoms: _325  and  _327
REMARK  141  A    between atoms: _327  and  _328
REMARK  142  A    between atoms: _327  and  _330
REMARK  143  A    between atoms: _330  and  _331
REMARK  144  A    between atoms: _336  and  _337
REMARK  145  A    between atoms: _339  and  _341
REMARK  146  A    between atoms: _341  and  _342
REMARK  147  A    between atoms: _341  and  _344
REMARK  148  A    between atoms: _344  and  _345
REMARK  149  A    between atoms: _348  and  _350
REMARK  150  A    between atoms: _350  and  _351
REMARK  151  A    between atoms: _350  and  _353
REMARK  152  A    between atoms: _356  and  _358
REMARK  153  A    between atoms: _358  and  _359
REMARK  154  A    between atoms: _358  and  _361
REMARK  155  A    between atoms: _361  and  _362
REMARK  156  A    between atoms: _365  and  _367
REMARK  157  A    between atoms: _367  and  _368
REMARK  158  A    between atoms: _367  and  _370
REMARK  159  A    between atoms: _370  and  _371
REMARK  160  A    between atoms: _371  and  _372
REMARK  161  A    between atoms: _375  and  _377
REMARK  162  A    between atoms: _377  and  _378
REMARK  163  A    between atoms: _377  and  _380
REMARK  164  A    between atoms: _380  and  _381
REMARK  165  A    between atoms: _386  and  _387
REMARK  166  A    between atoms: _389  and  _391
REMARK  167  A    between atoms: _391  and  _392
REMARK  168  A    between atoms: _391  and  _394
REMARK  169  A    between atoms: _394  and  _395
REMARK  170  A    between atoms: _395  and  _396
REMARK  171  A    between atoms: _398  and  _400
REMARK  172  A    between atoms: _400  and  _401
REMARK  173  A    between atoms: _403  and  _405
REMARK  174  A    between atoms: _405  and  _406
REMARK  175  A    between atoms: _405  and  _408
REMARK  176  A    between atoms: _408  and  _409
REMARK  177  A    between atoms: _409  and  _410
REMARK  178  A    between atoms: _412  and  _414
REMARK  179  A    between atoms: _414  and  _415
REMARK  180  A    between atoms: _414  and  _417
REMARK  181  A    between atoms: _417  and  _418
REMARK  182  A    between atoms: _423  and  _424
REMARK  183  A    between atoms: _426  and  _428
REMARK  184  A    between atoms: _428  and  _429
REMARK  185  A    between atoms: _428  and  _431
REMARK  186  A    between atoms: _434  and  _436
REMARK  187  A    between atoms: _436  and  _437
REMARK  188  A    between atoms: _436  and  _439
REMARK  189  A    between atoms: _439  and  _440
REMARK  190  A    between atoms: _445  and  _446
REMARK  191  A    between atoms: _448  and  _450
REMARK  192  A    between atoms: _450  and  _451
REMARK  193  A    between atoms: _450  and  _453
REMARK  194  A    between atoms: _456  and  _458
REMARK  195  A    between atoms: _458  and  _459
REMARK  196  A    between atoms: _458  and  _461
REMARK  197  A    between atoms: _461  and  _462
REMARK  198  A    between atoms: _467  and  _469
REMARK  199  A    between atoms: _469  and  _470
REMARK  200  A    between atoms: _469  and  _472
REMARK  201  A    between atoms: _472  and  _473
REMARK  202  A    between atoms: _473  and  _474
REMARK  203  A    between atoms: _474  and  _475
REMARK  204  A    between atoms: _484  and  _486
REMARK  205  A    between atoms: _486  and  _487
REMARK  206  A    between atoms: _486  and  _489
REMARK  207  A    between atoms: _489  and  _490
REMARK  208  A    between atoms: _493  and  _495
REMARK  209  A    between atoms: _495  and  _496
REMARK  210  A    between atoms: _495  and  _498
REMARK  211  A    between atoms: _498  and  _499
REMARK  212  A    between atoms: _502  and  _504
REMARK  213  A    between atoms: _504  and  _505
REMARK  214  A    between atoms: _508  and  _510
REMARK  215  A    between atoms: _510  and  _511
REMARK  216  A    between atoms: _510  and  _513
REMARK  217  A    between atoms: _513  and  _514
REMARK  218  A    between atoms: _519  and  _521
REMARK  219  A    between atoms: _521  and  _522
REMARK  220  A    between atoms: _521  and  _524
REMARK  221  A    between atoms: _524  and  _525
REMARK  222  A    between atoms: _528  and  _530
REMARK  223  A    between atoms: _530  and  _531
REMARK  224  A    between atoms: _530  and  _533
REMARK  225  A    between atoms: _533  and  _534
REMARK  226  A    between atoms: _537  and  _539
REMARK  227  A    between atoms: _539  and  _540
REMARK  228  A    between atoms: _539  and  _542
REMARK  229  A    between atoms: _542  and  _543
REMARK  230  A    between atoms: _543  and  _544
REMARK  231  A    between atoms: _544  and  _545
REMARK  232  A    between atoms: _545  and  _546
REMARK  233  A    between atoms: _550  and  _552
REMARK  234  A    between atoms: _552  and  _553
REMARK  235  A    between atoms: _552  and  _555
REMARK  236  A    between atoms: _558  and  _560
REMARK  237  A    between atoms: _560  and  _561
REMARK  238  A    between atoms: _564  and  _566
REMARK  239  A    between atoms: _566  and  _567
REMARK  240  A    between atoms: _566  and  _569
REMARK  241  A    between atoms: _569  and  _570
REMARK  242  A    between atoms: _573  and  _575
REMARK  243  A    between atoms: _575  and  _576
REMARK  244  A    between atoms: _575  and  _578
REMARK  245  A    between atoms: _578  and  _579
REMARK  246  A    between atoms: _585  and  _587
REMARK  247  A    between atoms: _587  and  _588
REMARK  248  A    between atoms: _590  and  _592
REMARK  249  A    between atoms: _592  and  _593
REMARK  250  A    between atoms: _592  and  _595
REMARK  251  A    between atoms: _595  and  _596
REMARK                            x       y       z     vdW  Elec       q    Type
REMARK                         _______ _______ _______ _____ _____    ______ ____
ROOT
ATOM      1  CA  THR A   4      -9.737  31.881 -12.485  0.00  0.00    +0.176 C 
ENDROOT
BRANCH   1   3
ATOM      2  C   VAL A   3      -9.044  32.866 -14.579  0.00  0.00    +0.241 C 
ATOM      3  N   THR A   4      -9.592  33.010 -13.383  0.00  0.00    -0.295 N 
ATOM      4  H   THR A   4      -9.924  33.949 -13.082  0.00  0.00    +0.150 HD
ATOM      5  O   VAL A   3      -8.699  31.761 -15.023  0.00  0.00    -0.273 OA
BRANCH   2   6
ATOM      6  CA  VAL A   3      -8.881  34.139 -15.414  0.00  0.00    +0.149 C 
BRANCH   6   9
ATOM      7  C   ILE A   2      -6.742  35.305 -15.601  0.00  0.00    +0.241 C 
ATOM      8  O   ILE A   2      -7.096  36.225 -14.870  0.00  0.00    -0.273 OA
ATOM      9  N   VAL A   3      -7.487  34.234 -15.815  0.00  0.00    -0.297 N 
ATOM     10  H   VAL A   3      -7.054  33.419 -16.294  0.00  0.00    +0.150 HD
BRANCH   7  11
ATOM     11  CA  ILE A   2      -5.394  35.364 -16.333  0.00  0.00    +0.148 C 
BRANCH  11  13
ATOM     12  C   TYR A   1      -5.360  36.863 -18.311  0.00  0.00    +0.239 C 
ATOM     13  N   ILE A   2      -5.346  36.674 -16.993  0.00  0.00    -0.297 N 
ATOM     14  H   ILE A   2      -5.297  37.517 -16.386  0.00  0.00    +0.150 HD
ATOM     15  O   TYR A   1      -5.205  35.965 -19.136  0.00  0.00    -0.274 OA
BRANCH  12  16
ATOM     16  CA  TYR A   1      -5.545  38.305 -18.760  0.00  0.00    +0.149 C 
BRANCH  16  17
ATOM     17  N   TYR A   1      -4.697  38.588 -19.896  0.00  0.00    -0.238 NA
ATOM     18  H   TYR A   1      -4.521  37.833 -20.590  0.00  0.00    +0.142 HD
ENDBRANCH  16  17
BRANCH  16  19
ATOM     19  CB  TYR A   1      -7.010  38.568 -19.108  0.00  0.00    +0.053 C 
BRANCH  19  20
ATOM     20  CG  TYR A   1      -7.319  39.990 -19.583  0.00  0.00    -0.020 A 
ATOM     21  CD2 TYR A   1      -7.743  40.978 -18.693  0.00  0.00    -0.001 A 
ATOM     22  CE2 TYR A   1      -8.034  42.259 -19.141  0.00  0.00    +0.036 A 
ATOM     23  CZ  TYR A   1      -7.902  42.555 -20.505  0.00  0.00    +0.134 A 
ATOM     24  CE1 TYR A   1      -7.494  41.595 -21.394  0.00  0.00    +0.036 A 
ATOM     25  CD1 TYR A   1      -7.212  40.326 -20.938  0.00  0.00    -0.001 A 
BRANCH  23  26
ATOM     26  OH  TYR A   1      -8.174  43.798 -21.000  0.00  0.00    -0.506 OA
ATOM     27  HH  TYR A   1      -8.021  43.803 -21.978  0.00  0.00    +0.292 HD
ENDBRANCH  23  26
ENDBRANCH  19  20
ENDBRANCH  16  19
ENDBRANCH  12  16
ENDBRANCH  11  13
BRANCH  11  28
ATOM     28  CB  ILE A   2      -4.223  35.235 -15.334  0.00  0.00    +0.027 C 
ATOM     29  CG2 ILE A   2      -4.383  34.031 -14.420  0.00  0.00    +0.002 C 
BRANCH  28  30
ATOM     30  CG1 ILE A   2      -2.868  35.229 -16.075  0.00  0.00    +0.002 C 
ATOM     31  CD1 ILE A   2      -1.640  35.198 -15.143  0.00  0.00    +0.000 C 
ENDBRANCH  28  30
ENDBRANCH  11  28
ENDBRANCH   7  11
ENDBRANCH   6   9
BRANCH   6  32
ATOM     32  CB  VAL A   3      -9.810  33.991 -16.650  0.00  0.00    +0.027 C 
ATOM     33  CG2 VAL A   3     -11.206  33.600 -16.235  0.00  0.00    +0.002 C 
ATOM     34  CG1 VAL A   3      -9.862  35.259 -17.486  0.00  0.00    +0.002 C 
ENDBRANCH   6  32
ENDBRANCH   2   6
ENDBRANCH   1   3
BRANCH   1  35
ATOM     35  C   THR A   4     -11.172  31.854 -12.022  0.00  0.00    +0.243 C 
ATOM     36  N   GLU A   5     -11.508  30.814 -11.257  0.00  0.00    -0.297 N 
ATOM     37  H   GLU A   5     -10.827  30.037 -11.140  0.00  0.00    +0.150 HD
ATOM     38  O   THR A   4     -11.950  32.774 -12.336  0.00  0.00    -0.273 OA
BRANCH  36  39
ATOM     39  CA  GLU A   5     -12.797  30.729 -10.579  0.00  0.00    +0.149 C 
BRANCH  39  40
ATOM     40  C   GLU A   5     -12.954  31.900  -9.628  0.00  0.00    +0.241 C 
ATOM     41  O   GLU A   5     -11.966  32.444  -9.146  0.00  0.00    -0.273 OA
ATOM     42  N   TYR A   6     -14.206  32.293  -9.404  0.00  0.00    -0.297 N 
ATOM     43  H   TYR A   6     -14.977  31.794  -9.892  0.00  0.00    +0.150 HD
BRANCH  42  44
ATOM     44  CA  TYR A   6     -14.547  33.386  -8.510  0.00  0.00    +0.153 C 
BRANCH  44  45
ATOM     45  C   TYR A   6     -14.728  32.855  -7.089  0.00  0.00    +0.241 C 
ATOM     46  N   MET A   7     -13.969  33.393  -6.140  0.00  0.00    -0.298 N 
ATOM     47  H   MET A   7     -13.250  34.098  -6.398  0.00  0.00    +0.150 HD
ATOM     48  O   TYR A   6     -15.529  31.957  -6.865  0.00  0.00    -0.273 OA
BRANCH  46  49
ATOM     49  CA  MET A   7     -14.130  33.006  -4.728  0.00  0.00    +0.138 C 
BRANCH  49  50
ATOM     50  C   MET A   7     -14.845  34.152  -4.027  0.00  0.00    +0.227 C 
ATOM     51  O   MET A   7     -14.231  35.162  -3.674  0.00  0.00    -0.286 OA
ENDBRANCH  49  50
BRANCH  49  52
ATOM     52  CB  MET A   7     -12.783  32.696  -4.088  0.00  0.00    +0.039 C 
BRANCH  52  53
ATOM     53  CG  MET A   7     -12.054  31.551  -4.772  0.00  0.00    +0.060 C 
BRANCH  53  54
ATOM     54  SD  MET A   7     -13.062  30.032  -4.774  0.00  0.00    -0.139 S 
ATOM     55  CE  MET A   7     -13.051  29.520  -3.049  0.00  0.00    +0.069 C 
ENDBRANCH  53  54
ENDBRANCH  52  53
ENDBRANCH  49  52
ENDBRANCH  46  49
ENDBRANCH  44  45
BRANCH  44  56
ATOM     56  CB  TYR A   6     -15.822  34.083  -8.991  0.00  0.00    +0.055 C 
BRANCH  56  57
ATOM     57  CG  TYR A   6     -16.141  35.336  -8.215  0.00  0.00    -0.020 A 
ATOM     58  CD2 TYR A   6     -17.410  35.537  -7.653  0.00  0.00    -0.001 A 
ATOM     59  CE2 TYR A   6     -17.701  36.682  -6.941  0.00  0.00    +0.036 A 
ATOM     60  CZ  TYR A   6     -16.712  37.647  -6.775  0.00  0.00    +0.134 A 
ATOM     61  CE1 TYR A   6     -15.449  37.473  -7.341  0.00  0.00    +0.036 A 
ATOM     62  CD1 TYR A   6     -15.176  36.337  -8.061  0.00  0.00    -0.001 A 
BRANCH  60  63
ATOM     63  OH  TYR A   6     -16.959  38.806  -6.053  0.00  0.00    -0.506 OA
ATOM     64  HH  TYR A   6     -16.144  39.368  -6.044  0.00  0.00    +0.292 HD
ENDBRANCH  60  63
ENDBRANCH  56  57
ENDBRANCH  44  56
ENDBRANCH  42  44
ENDBRANCH  39  40
BRANCH  39  65
ATOM     65  CB  GLU A   5     -12.951  29.404  -9.822  0.00  0.00    +0.041 C 
BRANCH  65  66
ATOM     66  CG  GLU A   5     -12.011  29.188  -8.666  0.00  0.00    +0.116 C 
BRANCH  66  67
ATOM     67  CD  GLU A   5     -12.272  27.870  -7.976  0.00  0.00    +0.365 C 
ATOM     68  OE2 GLU A   5     -13.358  27.714  -7.365  0.00  0.00    -0.246 OA
ATOM     69  OE1 GLU A   5     -11.401  26.972  -8.068  0.00  0.00    -0.246 OA
ENDBRANCH  66  67
ENDBRANCH  65  66
ENDBRANCH  39  65
ENDBRANCH  36  39
ENDBRANCH   1  35
BRANCH   1  70
ATOM     70  CB  THR A   4      -8.907  32.056 -11.222  0.00  0.00    +0.137 C 
ATOM     71  CG2 THR A   4      -7.472  32.198 -11.538  0.00  0.00    +0.034 C 
BRANCH  70  72
ATOM     72  OG1 THR A   4      -9.362  33.228 -10.547  0.00  0.00    -0.382 OA
ATOM     73  HG1 THR A   4     -10.318  33.123 -10.314  0.00  0.00    +0.210 HD
ENDBRANCH  70  72
ENDBRANCH   1  70
TORSDOF 31
REMARK  Name = ../refined-set-2016/3f3t/3f3t_pocket.pdb
REMARK  251 active torsions:
REMARK  status: ('A' for Active; 'I' for Inactive)
REMARK    1  A    between atoms: _1  and  _3
REMARK    2  A    between atoms: _3  and  _4
REMARK    3  A    between atoms: _3  and  _6
REMARK    4  A    between atoms: _6  and  _7
REMARK    5  A    between atoms: _10  and  _12
REMARK    6  A    between atoms: _12  and  _13
REMARK    7  A    between atoms: _12  and  _15
REMARK    8  A    between atoms: _15  and  _16
REMARK    9  A    between atoms: _16  and  _17
REMARK   10  A    between atoms: _20  and  _22
REMARK   11  A    between atoms: _22  and  _23
REMARK   12  A    between atoms: _22  and  _25
REMARK   13  A    between atoms: _28  and  _30
REMARK   14  A    between atoms: _30  and  _31
REMARK   15  A    between atoms: _30  and  _33
REMARK   16  A    between atoms: _33  and  _34
REMARK   17  A    between atoms: _44  and  _46
REMARK   18  A    between atoms: _46  and  _47
REMARK   19  A    between atoms: _46  and  _49
REMARK   20  A    between atoms: _49  and  _50
REMARK   21  A    between atoms: _50  and  _51
REMARK   22  A    between atoms: _53  and  _55
REMARK   23  A    between atoms: _55  and  _56
REMARK   24  A    between atoms: _55  and  _58
REMARK   25  A    between atoms: _61  and  _63
REMARK   26  A    between atoms: _63  and  _64
REMARK   27  A    between atoms: _67  and  _69
REMARK   28  A    between atoms: _69  and  _70
REMARK   29  A    between atoms: _69  and  _72
REMARK   30  A    between atoms: _72  and  _73
REMARK   31  A    between atoms: _76  and  _78
REMARK   32  A    between atoms: _78  and  _79
REMARK   33  A    between atoms: _78  and  _81
REMARK   34  A    between atoms: _81  and  _82
REMARK   35  A    between atoms: _82  and  _83
REMARK   36  A    between atoms: _83  and  _84
REMARK   37  A    between atoms: _84  and  _85
REMARK   38  A    between atoms: _89  and  _91
REMARK   39  A    between atoms: _91  and  _92
REMARK   40  A    between atoms: _91  and  _94
REMARK   41  A    between atoms: _94  and  _95
REMARK   42  A    between atoms: _98  and  _100
REMARK   43  A    between atoms: _100  and  _101
REMARK   44  A    between atoms: _100  and  _103
REMARK   45  A    between atoms: _103  and  _104
REMARK   46  A    between atoms: _104  and  _105
REMARK   47  A    between atoms: _107  and  _109
REMARK   48  A    between atoms: _109  and  _110
REMARK   49  A    between atoms: _113  and  _115
REMARK   50  A    between atoms: _115  and  _116
REMARK   51  A    between atoms: _115  and  _118
REMARK   52  A    between atoms: _118  and  _119
REMARK   53  A    between atoms: _125  and  _127
REMARK   54  A    between atoms: _127  and  _128
REMARK   55  A    between atoms: _127  and  _130
REMARK   56  A    between atoms: _130  and  _131
REMARK   57  A    between atoms: _134  and  _136
REMARK   58  A    between atoms: _136  and  _137
REMARK   59  A    between atoms: _136  and  _139
REMARK   60  A    between atoms: _139  and  _140
REMARK   61  A    between atoms: _140  and  _141
REMARK   62  A    between atoms: _146  and  _148
REMARK   63  A    between atoms: _148  and  _149
REMARK   64  A    between atoms: _148  and  _151
REMARK   65  A    between atoms: _151  and  _152
REMARK   66  A    between atoms: _152  and  _153
REMARK   67  A    between atoms: _156  and  _158
REMARK   68  A    between atoms: _158  and  _159
REMARK   69  A    between atoms: _162  and  _164
REMARK   70  A    between atoms: _164  and  _165
REMARK   71  A    between atoms: _164  and  _167
REMARK   72  A    between atoms: _167  and  _168
REMARK   73  A    between atoms: _168  and  _169
REMARK   74  A    between atoms: _174  and  _176
REMARK   75  A    between atoms: _176  and  _177
REMARK   76  A    between atoms: _176  and  _179
REMARK   77  A    between atoms: _182  and  _184
REMARK   78  A    between atoms: _184  and  _185
REMARK   79  A    between atoms: _184  and  _187
REMARK   80  A    between atoms: _187  and  _188
REMARK   81  A    between atoms: _188  and  _189
REMARK   82  A    between atoms: _191  and  _193
REMARK   83  A    between atoms: _193  and  _194
REMARK   84  A    between atoms: _193  and  _196
REMARK   85  A    between atoms: _196  and  _197
REMARK   86  A    between atoms: _197  and  _198
REMARK   87  A    between atoms: _198  and  _199
REMARK   88  A    between atoms: _199  and  _200
REMARK   89  A    between atoms: _204  and  _206
REMARK   90  A    between atoms: _206  and  _207
REMARK   91  A    between atoms: _206  and  _209
REMARK   92  A    between atoms: _209  and  _210
REMARK   93  A    between atoms: _210  and  _211
REMARK   94  A    between atoms: _211  and  _212
REMARK   95  A    between atoms: _212  and  _213
REMARK   96  A    between atoms: _217  and  _219
REMARK   97  A    between atoms: _219  and  _220
REMARK   98  A    between atoms: _219  and  _222
REMARK   99  A    between atoms: _222  and  _223
REMARK  100  A    between atoms: _226  and  _228
REMARK  101  A    between atoms: _228  and  _229
REMARK  102  A    between atoms: _228  and  _231
REMARK  103  A    between atoms: _231  and  _232
REMARK  104  A    between atoms: _232  and  _233
REMARK  105  A    between atoms: _233  and  _234
REMARK  106  A    between atoms: _243  and  _245
REMARK  107  A    between atoms: _245  and  _246
REMARK  108  A    between atoms: _245  and  _248
REMARK  109  A    between atoms: _248  and  _249
REMARK  110  A    between atoms: _254  and  _256
REMARK  111  A    between atoms: _256  and  _257
REMARK  112  A    between atoms: _256  and  _259
REMARK  113  A    between atoms: _259  and  _260
REMARK  114  A    between atoms: _260  and  _261
REMARK  115  A    between atoms: _261  and  _262
REMARK  116  A    between atoms: _262  and  _263
REMARK  117  A    between atoms: _267  and  _269
REMARK  118  A    between atoms: _269  and  _270
REMARK  119  A    between atoms: _269  and  _272
REMARK  120  A    between atoms: _272  and  _273
REMARK  121  A    between atoms: _276  and  _278
REMARK  122  A    between atoms: _278  and  _279
REMARK  123  A    between atoms: _278  and  _281
REMARK  124  A    between atoms: _284  and  _286
REMARK  125  A    between atoms: _286  and  _287
REMARK  126  A    between atoms: _286  and  _289
REMARK  127  A    between atoms: _289  and  _290
REMARK  128  A    between atoms: _290  and  _291
REMARK  129  A    between atoms: _296  and  _298
REMARK  130  A    between atoms: _298  and  _299
REMARK  131  A    between atoms: _298  and  _301
REMARK  132  A    between atoms: _301  and  _302
REMARK  133  A    between atoms: _305  and  _307
REMARK  134  A    between atoms: _307  and  _308
REMARK  135  A    between atoms: _307  and  _310
REMARK  136  A    between atoms: _310  and  _311
REMARK  137  A    between atoms: _316  and  _317
REMARK  138  A    between atoms: _319  and  _321
REMARK  139  A    between atoms: _321  and  _322
REMARK  140  A    between atoms: _325  and  _327
REMARK  141  A    between atoms: _327  and  _328
REMARK  142  A    between atoms: _327  and  _330
REMARK  143  A    between atoms: _330  and  _331
REMARK  144  A    between atoms: _336  and  _337
REMARK  145  A    between atoms: _339  and  _341
REMARK  146  A    between atoms: _341  and  _342
REMARK  147  A    between atoms: _341  and  _344
REMARK  148  A    between atoms: _344  and  _345
REMARK  149  A    between atoms: _348  and  _350
REMARK  150  A    between atoms: _350  and  _351
REMARK  151  A    between atoms: _350  and  _353
REMARK  152  A    between atoms: _356  and  _358
REMARK  153  A    between atoms: _358  and  _359
REMARK  154  A    between atoms: _358  and  _361
REMARK  155  A    between atoms: _361  and  _362
REMARK  156  A    between atoms: _365  and  _367
REMARK  157  A    between atoms: _367  and  _368
REMARK  158  A    between atoms: _367  and  _370
REMARK  159  A    between atoms: _370  and  _371
REMARK  160  A    between atoms: _371  and  _372
REMARK  161  A    between atoms: _375  and  _377
REMARK  162  A    between atoms: _377  and  _378
REMARK  163  A    between atoms: _377  and  _380
REMARK  164  A    between atoms: _380  and  _381
REMARK  165  A    between atoms: _386  and  _387
REMARK  166  A    between atoms: _389  and  _391
REMARK  167  A    between atoms: _391  and  _392
REMARK  168  A    between atoms: _391  and  _394
REMARK  169  A    between atoms: _394  and  _395
REMARK  170  A    between atoms: _395  and  _396
REMARK  171  A    between atoms: _398  and  _400
REMARK  172  A    between atoms: _400  and  _401
REMARK  173  A    between atoms: _403  and  _405
REMARK  174  A    between atoms: _405  and  _406
REMARK  175  A    between atoms: _405  and  _408
REMARK  176  A    between atoms: _408  and  _409
REMARK  177  A    between atoms: _409  and  _410
REMARK  178  A    between atoms: _412  and  _414
REMARK  179  A    between atoms: _414  and  _415
REMARK  180  A    between atoms: _414  and  _417
REMARK  181  A    between atoms: _417  and  _418
REMARK  182  A    between atoms: _423  and  _424
REMARK  183  A    between atoms: _426  and  _428
REMARK  184  A    between atoms: _428  and  _429
REMARK  185  A    between atoms: _428  and  _431
REMARK  186  A    between atoms: _434  and  _436
REMARK  187  A    between atoms: _436  and  _437
REMARK  188  A    between atoms: _436  and  _439
REMARK  189  A    between atoms: _439  and  _440
REMARK  190  A    between atoms: _445  and  _446
REMARK  191  A    between atoms: _448  and  _450
REMARK  192  A    between atoms: _450  and  _451
REMARK  193  A    between atoms: _450  and  _453
REMARK  194  A    between atoms: _456  and  _458
REMARK  195  A    between atoms: _458  and  _459
REMARK  196  A    between atoms: _458  and  _461
REMARK  197  A    between atoms: _461  and  _462
REMARK  198  A    between atoms: _467  and  _469
REMARK  199  A    between atoms: _469  and  _470
REMARK  200  A    between atoms: _469  and  _472
REMARK  201  A    between atoms: _472  and  _473
REMARK  202  A    between atoms: _473  and  _474
REMARK  203  A    between atoms: _474  and  _475
REMARK  204  A    between atoms: _484  and  _486
REMARK  205  A    between atoms: _486  and  _487
REMARK  206  A    between atoms: _486  and  _489
REMARK  207  A    between atoms: _489  and  _490
REMARK  208  A    between atoms: _493  and  _495
REMARK  209  A    between atoms: _495  and  _496
REMARK  210  A    between atoms: _495  and  _498
REMARK  211  A    between atoms: _498  and  _499
REMARK  212  A    between atoms: _502  and  _504
REMARK  213  A    between atoms: _504  and  _505
REMARK  214  A    between atoms: _508  and  _510
REMARK  215  A    between atoms: _510  and  _511
REMARK  216  A    between atoms: _510  and  _513
REMARK  217  A    between atoms: _513  and  _514
REMARK  218  A    between atoms: _519  and  _521
REMARK  219  A    between atoms: _521  and  _522
REMARK  220  A    between atoms: _521  and  _524
REMARK  221  A    between atoms: _524  and  _525
REMARK  222  A    between atoms: _528  and  _530
REMARK  223  A    between atoms: _530  and  _531
REMARK  224  A    between atoms: _530  and  _533
REMARK  225  A    between atoms: _533  and  _534
REMARK  226  A    between atoms: _537  and  _539
REMARK  227  A    between atoms: _539  and  _540
REMARK  228  A    between atoms: _539  and  _542
REMARK  229  A    between atoms: _542  and  _543
REMARK  230  A    between atoms: _543  and  _544
REMARK  231  A    between atoms: _544  and  _545
REMARK  232  A    between atoms: _545  and  _546
REMARK  233  A    between atoms: _550  and  _552
REMARK  234  A    between atoms: _552  and  _553
REMARK  235  A    between atoms: _552  and  _555
REMARK  236  A    between atoms: _558  and  _560
REMARK  237  A    between atoms: _560  and  _561
REMARK  238  A    between atoms: _564  and  _566
REMARK  239  A    between atoms: _566  and  _567
REMARK  240  A    between atoms: _566  and  _569
REMARK  241  A    between atoms: _569  and  _570
REMARK  242  A    between atoms: _573  and  _575
REMARK  243  A    between atoms: _575  and  _576
REMARK  244  A    between atoms: _575  and  _578
REMARK  245  A    between atoms: _578  and  _579
REMARK  246  A    between atoms: _585  and  _587
REMARK  247  A    between atoms: _587  and  _588
REMARK  248  A    between atoms: _590  and  _592
REMARK  249  A    between atoms: _592  and  _593
REMARK  250  A    between atoms: _592  and  _595
REMARK  251  A    between atoms: _595  and  _596
REMARK                            x       y       z     vdW  Elec       q    Type
REMARK                         _______ _______ _______ _____ _____    ______ ____
ROOT
ATOM      1  C   GLY A   1      -3.215  21.709  -0.364  0.00  0.00    +0.240 C 
ATOM      2  N   MET A   2      -2.741  21.822   0.879  0.00  0.00    -0.298 N 
ATOM      3  H   MET A   2      -3.378  21.924   1.695  0.00  0.00    +0.150 HD
ATOM      4  O   GLY A   1      -2.457  21.444  -1.360  0.00  0.00    -0.274 OA
ENDROOT
BRANCH   1   5
ATOM      5  CA  GLY A   1      -4.733  21.896  -0.520  0.00  0.00    +0.169 C 
BRANCH   5   6
ATOM      6  N   GLY A   1      -5.402  21.229   0.593  0.00  0.00    -0.236 NA
ATOM      7  H   GLY A   1      -6.075  21.752   1.189  0.00  0.00    +0.142 HD
ENDBRANCH   5   6
ENDBRANCH   1   5
BRANCH   2   8
ATOM      8  CA  MET A   2      -1.290  21.797   1.045  0.00  0.00    +0.138 C 
BRANCH   8   9
ATOM      9  C   MET A   2      -0.789  20.352   1.009  0.00  0.00    +0.227 C 
ATOM     10  O   MET A   2       0.363  20.100   0.664  0.00  0.00    -0.286 OA
ENDBRANCH   8   9
BRANCH   8  11
ATOM     11  CB  MET A   2      -0.802  22.606   2.249  0.00  0.00    +0.039 C 
BRANCH  11  12
ATOM     12  CG  MET A   2      -0.972  24.144   2.132  0.00  0.00    +0.060 C 
BRANCH  12  13
ATOM     13  SD  MET A   2       0.050  24.956   0.868  0.00  0.00    -0.139 S 
ATOM     14  CE  MET A   2       1.655  24.128   1.052  0.00  0.00    +0.069 C 
ENDBRANCH  12  13
ENDBRANCH  11  12
ENDBRANCH   8  11
ENDBRANCH   2   8
TORSDOF 7
REMARK  Name = ../refined-set-2016/3f3t/3f3t_pocket.pdb
REMARK  251 active torsions:
REMARK  status: ('A' for Active; 'I' for Inactive)
REMARK    1  A    between atoms: _1  and  _3
REMARK    2  A    between atoms: _3  and  _4
REMARK    3  A    between atoms: _3  and  _6
REMARK    4  A    between atoms: _6  and  _7
REMARK    5  A    between atoms: _10  and  _12
REMARK    6  A    between atoms: _12  and  _13
REMARK    7  A    between atoms: _12  and  _15
REMARK    8  A    between atoms: _15  and  _16
REMARK    9  A    between atoms: _16  and  _17
REMARK   10  A    between atoms: _20  and  _22
REMARK   11  A    between atoms: _22  and  _23
REMARK   12  A    between atoms: _22  and  _25
REMARK   13  A    between atoms: _28  and  _30
REMARK   14  A    between atoms: _30  and  _31
REMARK   15  A    between atoms: _30  and  _33
REMARK   16  A    between atoms: _33  and  _34
REMARK   17  A    between atoms: _44  and  _46
REMARK   18  A    between atoms: _46  and  _47
REMARK   19  A    between atoms: _46  and  _49
REMARK   20  A    between atoms: _49  and  _50
REMARK   21  A    between atoms: _50  and  _51
REMARK   22  A    between atoms: _53  and  _55
REMARK   23  A    between atoms: _55  and  _56
REMARK   24  A    between atoms: _55  and  _58
REMARK   25  A    between atoms: _61  and  _63
REMARK   26  A    between atoms: _63  and  _64
REMARK   27  A    between atoms: _67  and  _69
REMARK   28  A    between atoms: _69  and  _70
REMARK   29  A    between atoms: _69  and  _72
REMARK   30  A    between atoms: _72  and  _73
REMARK   31  A    between atoms: _76  and  _78
REMARK   32  A    between atoms: _78  and  _79
REMARK   33  A    between atoms: _78  and  _81
REMARK   34  A    between atoms: _81  and  _82
REMARK   35  A    between atoms: _82  and  _83
REMARK   36  A    between atoms: _83  and  _84
REMARK   37  A    between atoms: _84  and  _85
REMARK   38  A    between atoms: _89  and  _91
REMARK   39  A    between atoms: _91  and  _92
REMARK   40  A    between atoms: _91  and  _94
REMARK   41  A    between atoms: _94  and  _95
REMARK   42  A    between atoms: _98  and  _100
REMARK   43  A    between atoms: _100  and  _101
REMARK   44  A    between atoms: _100  and  _103
REMARK   45  A    between atoms: _103  and  _104
REMARK   46  A    between atoms: _104  and  _105
REMARK   47  A    between atoms: _107  and  _109
REMARK   48  A    between atoms: _109  and  _110
REMARK   49  A    between atoms: _113  and  _115
REMARK   50  A    between atoms: _115  and  _116
REMARK   51  A    between atoms: _115  and  _118
REMARK   52  A    between atoms: _118  and  _119
REMARK   53  A    between atoms: _125  and  _127
REMARK   54  A    between atoms: _127  and  _128
REMARK   55  A    between atoms: _127  and  _130
REMARK   56  A    between atoms: _130  and  _131
REMARK   57  A    between atoms: _134  and  _136
REMARK   58  A    between atoms: _136  and  _137
REMARK   59  A    between atoms: _136  and  _139
REMARK   60  A    between atoms: _139  and  _140
REMARK   61  A    between atoms: _140  and  _141
REMARK   62  A    between atoms: _146  and  _148
REMARK   63  A    between atoms: _148  and  _149
REMARK   64  A    between atoms: _148  and  _151
REMARK   65  A    between atoms: _151  and  _152
REMARK   66  A    between atoms: _152  and  _153
REMARK   67  A    between atoms: _156  and  _158
REMARK   68  A    between atoms: _158  and  _159
REMARK   69  A    between atoms: _162  and  _164
REMARK   70  A    between atoms: _164  and  _165
REMARK   71  A    between atoms: _164  and  _167
REMARK   72  A    between atoms: _167  and  _168
REMARK   73  A    between atoms: _168  and  _169
REMARK   74  A    between atoms: _174  and  _176
REMARK   75  A    between atoms: _176  and  _177
REMARK   76  A    between atoms: _176  and  _179
REMARK   77  A    between atoms: _182  and  _184
REMARK   78  A    between atoms: _184  and  _185
REMARK   79  A    between atoms: _184  and  _187
REMARK   80  A    between atoms: _187  and  _188
REMARK   81  A    between atoms: _188  and  _189
REMARK   82  A    between atoms: _191  and  _193
REMARK   83  A    between atoms: _193  and  _194
REMARK   84  A    between atoms: _193  and  _196
REMARK   85  A    between atoms: _196  and  _197
REMARK   86  A    between atoms: _197  and  _198
REMARK   87  A    between atoms: _198  and  _199
REMARK   88  A    between atoms: _199  and  _200
REMARK   89  A    between atoms: _204  and  _206
REMARK   90  A    between atoms: _206  and  _207
REMARK   91  A    between atoms: _206  and  _209
REMARK   92  A    between atoms: _209  and  _210
REMARK   93  A    between atoms: _210  and  _211
REMARK   94  A    between atoms: _211  and  _212
REMARK   95  A    between atoms: _212  and  _213
REMARK   96  A    between atoms: _217  and  _219
REMARK   97  A    between atoms: _219  and  _220
REMARK   98  A    between atoms: _219  and  _222
REMARK   99  A    between atoms: _222  and  _223
REMARK  100  A    between atoms: _226  and  _228
REMARK  101  A    between atoms: _228  and  _229
REMARK  102  A    between atoms: _228  and  _231
REMARK  103  A    between atoms: _231  and  _232
REMARK  104  A    between atoms: _232  and  _233
REMARK  105  A    between atoms: _233  and  _234
REMARK  106  A    between atoms: _243  and  _245
REMARK  107  A    between atoms: _245  and  _246
REMARK  108  A    between atoms: _245  and  _248
REMARK  109  A    between atoms: _248  and  _249
REMARK  110  A    between atoms: _254  and  _256
REMARK  111  A    between atoms: _256  and  _257
REMARK  112  A    between atoms: _256  and  _259
REMARK  113  A    between atoms: _259  and  _260
REMARK  114  A    between atoms: _260  and  _261
REMARK  115  A    between atoms: _261  and  _262
REMARK  116  A    between atoms: _262  and  _263
REMARK  117  A    between atoms: _267  and  _269
REMARK  118  A    between atoms: _269  and  _270
REMARK  119  A    between atoms: _269  and  _272
REMARK  120  A    between atoms: _272  and  _273
REMARK  121  A    between atoms: _276  and  _278
REMARK  122  A    between atoms: _278  and  _279
REMARK  123  A    between atoms: _278  and  _281
REMARK  124  A    between atoms: _284  and  _286
REMARK  125  A    between atoms: _286  and  _287
REMARK  126  A    between atoms: _286  and  _289
REMARK  127  A    between atoms: _289  and  _290
REMARK  128  A    between atoms: _290  and  _291
REMARK  129  A    between atoms: _296  and  _298
REMARK  130  A    between atoms: _298  and  _299
REMARK  131  A    between atoms: _298  and  _301
REMARK  132  A    between atoms: _301  and  _302
REMARK  133  A    between atoms: _305  and  _307
REMARK  134  A    between atoms: _307  and  _308
REMARK  135  A    between atoms: _307  and  _310
REMARK  136  A    between atoms: _310  and  _311
REMARK  137  A    between atoms: _316  and  _317
REMARK  138  A    between atoms: _319  and  _321
REMARK  139  A    between atoms: _321  and  _322
REMARK  140  A    between atoms: _325  and  _327
REMARK  141  A    between atoms: _327  and  _328
REMARK  142  A    between atoms: _327  and  _330
REMARK  143  A    between atoms: _330  and  _331
REMARK  144  A    between atoms: _336  and  _337
REMARK  145  A    between atoms: _339  and  _341
REMARK  146  A    between atoms: _341  and  _342
REMARK  147  A    between atoms: _341  and  _344
REMARK  148  A    between atoms: _344  and  _345
REMARK  149  A    between atoms: _348  and  _350
REMARK  150  A    between atoms: _350  and  _351
REMARK  151  A    between atoms: _350  and  _353
REMARK  152  A    between atoms: _356  and  _358
REMARK  153  A    between atoms: _358  and  _359
REMARK  154  A    between atoms: _358  and  _361
REMARK  155  A    between atoms: _361  and  _362
REMARK  156  A    between atoms: _365  and  _367
REMARK  157  A    between atoms: _367  and  _368
REMARK  158  A    between atoms: _367  and  _370
REMARK  159  A    between atoms: _370  and  _371
REMARK  160  A    between atoms: _371  and  _372
REMARK  161  A    between atoms: _375  and  _377
REMARK  162  A    between atoms: _377  and  _378
REMARK  163  A    between atoms: _377  and  _380
REMARK  164  A    between atoms: _380  and  _381
REMARK  165  A    between atoms: _386  and  _387
REMARK  166  A    between atoms: _389  and  _391
REMARK  167  A    between atoms: _391  and  _392
REMARK  168  A    between atoms: _391  and  _394
REMARK  169  A    between atoms: _394  and  _395
REMARK  170  A    between atoms: _395  and  _396
REMARK  171  A    between atoms: _398  and  _400
REMARK  172  A    between atoms: _400  and  _401
REMARK  173  A    between atoms: _403  and  _405
REMARK  174  A    between atoms: _405  and  _406
REMARK  175  A    between atoms: _405  and  _408
REMARK  176  A    between atoms: _408  and  _409
REMARK  177  A    between atoms: _409  and  _410
REMARK  178  A    between atoms: _412  and  _414
REMARK  179  A    between atoms: _414  and  _415
REMARK  180  A    between atoms: _414  and  _417
REMARK  181  A    between atoms: _417  and  _418
REMARK  182  A    between atoms: _423  and  _424
REMARK  183  A    between atoms: _426  and  _428
REMARK  184  A    between atoms: _428  and  _429
REMARK  185  A    between atoms: _428  and  _431
REMARK  186  A    between atoms: _434  and  _436
REMARK  187  A    between atoms: _436  and  _437
REMARK  188  A    between atoms: _436  and  _439
REMARK  189  A    between atoms: _439  and  _440
REMARK  190  A    between atoms: _445  and  _446
REMARK  191  A    between atoms: _448  and  _450
REMARK  192  A    between atoms: _450  and  _451
REMARK  193  A    between atoms: _450  and  _453
REMARK  194  A    between atoms: _456  and  _458
REMARK  195  A    between atoms: _458  and  _459
REMARK  196  A    between atoms: _458  and  _461
REMARK  197  A    between atoms: _461  and  _462
REMARK  198  A    between atoms: _467  and  _469
REMARK  199  A    between atoms: _469  and  _470
REMARK  200  A    between atoms: _469  and  _472
REMARK  201  A    between atoms: _472  and  _473
REMARK  202  A    between atoms: _473  and  _474
REMARK  203  A    between atoms: _474  and  _475
REMARK  204  A    between atoms: _484  and  _486
REMARK  205  A    between atoms: _486  and  _487
REMARK  206  A    between atoms: _486  and  _489
REMARK  207  A    between atoms: _489  and  _490
REMARK  208  A    between atoms: _493  and  _495
REMARK  209  A    between atoms: _495  and  _496
REMARK  210  A    between atoms: _495  and  _498
REMARK  211  A    between atoms: _498  and  _499
REMARK  212  A    between atoms: _502  and  _504
REMARK  213  A    between atoms: _504  and  _505
REMARK  214  A    between atoms: _508  and  _510
REMARK  215  A    between atoms: _510  and  _511
REMARK  216  A    between atoms: _510  and  _513
REMARK  217  A    between atoms: _513  and  _514
REMARK  218  A    between atoms: _519  and  _521
REMARK  219  A    between atoms: _521  and  _522
REMARK  220  A    between atoms: _521  and  _524
REMARK  221  A    between atoms: _524  and  _525
REMARK  222  A    between atoms: _528  and  _530
REMARK  223  A    between atoms: _530  and  _531
REMARK  224  A    between atoms: _530  and  _533
REMARK  225  A    between atoms: _533  and  _534
REMARK  226  A    between atoms: _537  and  _539
REMARK  227  A    between atoms: _539  and  _540
REMARK  228  A    between atoms: _539  and  _542
REMARK  229  A    between atoms: _542  and  _543
REMARK  230  A    between atoms: _543  and  _544
REMARK  231  A    between atoms: _544  and  _545
REMARK  232  A    between atoms: _545  and  _546
REMARK  233  A    between atoms: _550  and  _552
REMARK  234  A    between atoms: _552  and  _553
REMARK  235  A    between atoms: _552  and  _555
REMARK  236  A    between atoms: _558  and  _560
REMARK  237  A    between atoms: _560  and  _561
REMARK  238  A    between atoms: _564  and  _566
REMARK  239  A    between atoms: _566  and  _567
REMARK  240  A    between atoms: _566  and  _569
REMARK  241  A    between atoms: _569  and  _570
REMARK  242  A    between atoms: _573  and  _575
REMARK  243  A    between atoms: _575  and  _576
REMARK  244  A    between atoms: _575  and  _578
REMARK  245  A    between atoms: _578  and  _579
REMARK  246  A    between atoms: _585  and  _587
REMARK  247  A    between atoms: _587  and  _588
REMARK  248  A    between atoms: _590  and  _592
REMARK  249  A    between atoms: _592  and  _593
REMARK  250  A    between atoms: _592  and  _595
REMARK  251  A    between atoms: _595  and  _596
REMARK                            x       y       z     vdW  Elec       q    Type
REMARK                         _______ _______ _______ _____ _____    ______ ____
ROOT
ATOM      1  CA  TYR A   1      -1.551  18.117  -2.666  0.00  0.00    +0.149 C 
ENDROOT
BRANCH   1   2
ATOM      2  C   TYR A   1      -0.292  18.769  -3.212  0.00  0.00    +0.239 C 
ATOM      3  N   VAL A   2      -0.049  20.023  -2.833  0.00  0.00    -0.298 N 
ATOM      4  H   VAL A   2      -0.797  20.545  -2.333  0.00  0.00    +0.150 HD
ATOM      5  O   TYR A   1       0.428  18.152  -3.976  0.00  0.00    -0.274 OA
BRANCH   3   6
ATOM      6  CA  VAL A   2       1.224  20.698  -3.090  0.00  0.00    +0.137 C 
BRANCH   6   7
ATOM      7  CB  VAL A   2       1.226  22.084  -2.399  0.00  0.00    +0.026 C 
ATOM      8  CG2 VAL A   2       2.612  22.714  -2.336  0.00  0.00    +0.002 C 
ATOM      9  CG1 VAL A   2       0.229  23.046  -3.089  0.00  0.00    +0.002 C 
ENDBRANCH   6   7
BRANCH   6  10
ATOM     10  C   VAL A   2       2.380  19.781  -2.610  0.00  0.00    +0.227 C 
ATOM     11  O   VAL A   2       3.357  19.558  -3.342  0.00  0.00    -0.286 OA
ENDBRANCH   6  10
ENDBRANCH   3   6
ENDBRANCH   1   2
BRANCH   1  12
ATOM     12  N   TYR A   1      -1.709  18.348  -1.210  0.00  0.00    -0.238 NA
ATOM     13  H   TYR A   1      -2.446  19.002  -0.876  0.00  0.00    +0.142 HD
ENDBRANCH   1  12
BRANCH   1  14
ATOM     14  CB  TYR A   1      -2.770  18.616  -3.447  0.00  0.00    +0.053 C 
BRANCH  14  15
ATOM     15  CG  TYR A   1      -2.598  18.673  -4.950  0.00  0.00    -0.020 A 
ATOM     16  CD2 TYR A   1      -2.161  19.848  -5.581  0.00  0.00    -0.001 A 
ATOM     17  CE2 TYR A   1      -2.041  19.914  -6.973  0.00  0.00    +0.036 A 
ATOM     18  CZ  TYR A   1      -2.382  18.816  -7.745  0.00  0.00    +0.134 A 
ATOM     19  CE1 TYR A   1      -2.829  17.647  -7.151  0.00  0.00    +0.036 A 
ATOM     20  CD1 TYR A   1      -2.934  17.580  -5.762  0.00  0.00    -0.001 A 
BRANCH  18  21
ATOM     21  OH  TYR A   1      -2.255  18.895  -9.138  0.00  0.00    -0.506 OA
ATOM     22  HH  TYR A   1      -2.829  19.626  -9.480  0.00  0.00    +0.292 HD
ENDBRANCH  18  21
ENDBRANCH  14  15
ENDBRANCH   1  14
TORSDOF 8
REMARK  Name = ../refined-set-2016/3f3t/3f3t_pocket.pdb
REMARK  251 active torsions:
REMARK  status: ('A' for Active; 'I' for Inactive)
REMARK    1  A    between atoms: _1  and  _3
REMARK    2  A    between atoms: _3  and  _4
REMARK    3  A    between atoms: _3  and  _6
REMARK    4  A    between atoms: _6  and  _7
REMARK    5  A    between atoms: _10  and  _12
REMARK    6  A    between atoms: _12  and  _13
REMARK    7  A    between atoms: _12  and  _15
REMARK    8  A    between atoms: _15  and  _16
REMARK    9  A    between atoms: _16  and  _17
REMARK   10  A    between atoms: _20  and  _22
REMARK   11  A    between atoms: _22  and  _23
REMARK   12  A    between atoms: _22  and  _25
REMARK   13  A    between atoms: _28  and  _30
REMARK   14  A    between atoms: _30  and  _31
REMARK   15  A    between atoms: _30  and  _33
REMARK   16  A    between atoms: _33  and  _34
REMARK   17  A    between atoms: _44  and  _46
REMARK   18  A    between atoms: _46  and  _47
REMARK   19  A    between atoms: _46  and  _49
REMARK   20  A    between atoms: _49  and  _50
REMARK   21  A    between atoms: _50  and  _51
REMARK   22  A    between atoms: _53  and  _55
REMARK   23  A    between atoms: _55  and  _56
REMARK   24  A    between atoms: _55  and  _58
REMARK   25  A    between atoms: _61  and  _63
REMARK   26  A    between atoms: _63  and  _64
REMARK   27  A    between atoms: _67  and  _69
REMARK   28  A    between atoms: _69  and  _70
REMARK   29  A    between atoms: _69  and  _72
REMARK   30  A    between atoms: _72  and  _73
REMARK   31  A    between atoms: _76  and  _78
REMARK   32  A    between atoms: _78  and  _79
REMARK   33  A    between atoms: _78  and  _81
REMARK   34  A    between atoms: _81  and  _82
REMARK   35  A    between atoms: _82  and  _83
REMARK   36  A    between atoms: _83  and  _84
REMARK   37  A    between atoms: _84  and  _85
REMARK   38  A    between atoms: _89  and  _91
REMARK   39  A    between atoms: _91  and  _92
REMARK   40  A    between atoms: _91  and  _94
REMARK   41  A    between atoms: _94  and  _95
REMARK   42  A    between atoms: _98  and  _100
REMARK   43  A    between atoms: _100  and  _101
REMARK   44  A    between atoms: _100  and  _103
REMARK   45  A    between atoms: _103  and  _104
REMARK   46  A    between atoms: _104  and  _105
REMARK   47  A    between atoms: _107  and  _109
REMARK   48  A    between atoms: _109  and  _110
REMARK   49  A    between atoms: _113  and  _115
REMARK   50  A    between atoms: _115  and  _116
REMARK   51  A    between atoms: _115  and  _118
REMARK   52  A    between atoms: _118  and  _119
REMARK   53  A    between atoms: _125  and  _127
REMARK   54  A    between atoms: _127  and  _128
REMARK   55  A    between atoms: _127  and  _130
REMARK   56  A    between atoms: _130  and  _131
REMARK   57  A    between atoms: _134  and  _136
REMARK   58  A    between atoms: _136  and  _137
REMARK   59  A    between atoms: _136  and  _139
REMARK   60  A    between atoms: _139  and  _140
REMARK   61  A    between atoms: _140  and  _141
REMARK   62  A    between atoms: _146  and  _148
REMARK   63  A    between atoms: _148  and  _149
REMARK   64  A    between atoms: _148  and  _151
REMARK   65  A    between atoms: _151  and  _152
REMARK   66  A    between atoms: _152  and  _153
REMARK   67  A    between atoms: _156  and  _158
REMARK   68  A    between atoms: _158  and  _159
REMARK   69  A    between atoms: _162  and  _164
REMARK   70  A    between atoms: _164  and  _165
REMARK   71  A    between atoms: _164  and  _167
REMARK   72  A    between atoms: _167  and  _168
REMARK   73  A    between atoms: _168  and  _169
REMARK   74  A    between atoms: _174  and  _176
REMARK   75  A    between atoms: _176  and  _177
REMARK   76  A    between atoms: _176  and  _179
REMARK   77  A    between atoms: _182  and  _184
REMARK   78  A    between atoms: _184  and  _185
REMARK   79  A    between atoms: _184  and  _187
REMARK   80  A    between atoms: _187  and  _188
REMARK   81  A    between atoms: _188  and  _189
REMARK   82  A    between atoms: _191  and  _193
REMARK   83  A    between atoms: _193  and  _194
REMARK   84  A    between atoms: _193  and  _196
REMARK   85  A    between atoms: _196  and  _197
REMARK   86  A    between atoms: _197  and  _198
REMARK   87  A    between atoms: _198  and  _199
REMARK   88  A    between atoms: _199  and  _200
REMARK   89  A    between atoms: _204  and  _206
REMARK   90  A    between atoms: _206  and  _207
REMARK   91  A    between atoms: _206  and  _209
REMARK   92  A    between atoms: _209  and  _210
REMARK   93  A    between atoms: _210  and  _211
REMARK   94  A    between atoms: _211  and  _212
REMARK   95  A    between atoms: _212  and  _213
REMARK   96  A    between atoms: _217  and  _219
REMARK   97  A    between atoms: _219  and  _220
REMARK   98  A    between atoms: _219  and  _222
REMARK   99  A    between atoms: _222  and  _223
REMARK  100  A    between atoms: _226  and  _228
REMARK  101  A    between atoms: _228  and  _229
REMARK  102  A    between atoms: _228  and  _231
REMARK  103  A    between atoms: _231  and  _232
REMARK  104  A    between atoms: _232  and  _233
REMARK  105  A    between atoms: _233  and  _234
REMARK  106  A    between atoms: _243  and  _245
REMARK  107  A    between atoms: _245  and  _246
REMARK  108  A    between atoms: _245  and  _248
REMARK  109  A    between atoms: _248  and  _249
REMARK  110  A    between atoms: _254  and  _256
REMARK  111  A    between atoms: _256  and  _257
REMARK  112  A    between atoms: _256  and  _259
REMARK  113  A    between atoms: _259  and  _260
REMARK  114  A    between atoms: _260  and  _261
REMARK  115  A    between atoms: _261  and  _262
REMARK  116  A    between atoms: _262  and  _263
REMARK  117  A    between atoms: _267  and  _269
REMARK  118  A    between atoms: _269  and  _270
REMARK  119  A    between atoms: _269  and  _272
REMARK  120  A    between atoms: _272  and  _273
REMARK  121  A    between atoms: _276  and  _278
REMARK  122  A    between atoms: _278  and  _279
REMARK  123  A    between atoms: _278  and  _281
REMARK  124  A    between atoms: _284  and  _286
REMARK  125  A    between atoms: _286  and  _287
REMARK  126  A    between atoms: _286  and  _289
REMARK  127  A    between atoms: _289  and  _290
REMARK  128  A    between atoms: _290  and  _291
REMARK  129  A    between atoms: _296  and  _298
REMARK  130  A    between atoms: _298  and  _299
REMARK  131  A    between atoms: _298  and  _301
REMARK  132  A    between atoms: _301  and  _302
REMARK  133  A    between atoms: _305  and  _307
REMARK  134  A    between atoms: _307  and  _308
REMARK  135  A    between atoms: _307  and  _310
REMARK  136  A    between atoms: _310  and  _311
REMARK  137  A    between atoms: _316  and  _317
REMARK  138  A    between atoms: _319  and  _321
REMARK  139  A    between atoms: _321  and  _322
REMARK  140  A    between atoms: _325  and  _327
REMARK  141  A    between atoms: _327  and  _328
REMARK  142  A    between atoms: _327  and  _330
REMARK  143  A    between atoms: _330  and  _331
REMARK  144  A    between atoms: _336  and  _337
REMARK  145  A    between atoms: _339  and  _341
REMARK  146  A    between atoms: _341  and  _342
REMARK  147  A    between atoms: _341  and  _344
REMARK  148  A    between atoms: _344  and  _345
REMARK  149  A    between atoms: _348  and  _350
REMARK  150  A    between atoms: _350  and  _351
REMARK  151  A    between atoms: _350  and  _353
REMARK  152  A    between atoms: _356  and  _358
REMARK  153  A    between atoms: _358  and  _359
REMARK  154  A    between atoms: _358  and  _361
REMARK  155  A    between atoms: _361  and  _362
REMARK  156  A    between atoms: _365  and  _367
REMARK  157  A    between atoms: _367  and  _368
REMARK  158  A    between atoms: _367  and  _370
REMARK  159  A    between atoms: _370  and  _371
REMARK  160  A    between atoms: _371  and  _372
REMARK  161  A    between atoms: _375  and  _377
REMARK  162  A    between atoms: _377  and  _378
REMARK  163  A    between atoms: _377  and  _380
REMARK  164  A    between atoms: _380  and  _381
REMARK  165  A    between atoms: _386  and  _387
REMARK  166  A    between atoms: _389  and  _391
REMARK  167  A    between atoms: _391  and  _392
REMARK  168  A    between atoms: _391  and  _394
REMARK  169  A    between atoms: _394  and  _395
REMARK  170  A    between atoms: _395  and  _396
REMARK  171  A    between atoms: _398  and  _400
REMARK  172  A    between atoms: _400  and  _401
REMARK  173  A    between atoms: _403  and  _405
REMARK  174  A    between atoms: _405  and  _406
REMARK  175  A    between atoms: _405  and  _408
REMARK  176  A    between atoms: _408  and  _409
REMARK  177  A    between atoms: _409  and  _410
REMARK  178  A    between atoms: _412  and  _414
REMARK  179  A    between atoms: _414  and  _415
REMARK  180  A    between atoms: _414  and  _417
REMARK  181  A    between atoms: _417  and  _418
REMARK  182  A    between atoms: _423  and  _424
REMARK  183  A    between atoms: _426  and  _428
REMARK  184  A    between atoms: _428  and  _429
REMARK  185  A    between atoms: _428  and  _431
REMARK  186  A    between atoms: _434  and  _436
REMARK  187  A    between atoms: _436  and  _437
REMARK  188  A    between atoms: _436  and  _439
REMARK  189  A    between atoms: _439  and  _440
REMARK  190  A    between atoms: _445  and  _446
REMARK  191  A    between atoms: _448  and  _450
REMARK  192  A    between atoms: _450  and  _451
REMARK  193  A    between atoms: _450  and  _453
REMARK  194  A    between atoms: _456  and  _458
REMARK  195  A    between atoms: _458  and  _459
REMARK  196  A    between atoms: _458  and  _461
REMARK  197  A    between atoms: _461  and  _462
REMARK  198  A    between atoms: _467  and  _469
REMARK  199  A    between atoms: _469  and  _470
REMARK  200  A    between atoms: _469  and  _472
REMARK  201  A    between atoms: _472  and  _473
REMARK  202  A    between atoms: _473  and  _474
REMARK  203  A    between atoms: _474  and  _475
REMARK  204  A    between atoms: _484  and  _486
REMARK  205  A    between atoms: _486  and  _487
REMARK  206  A    between atoms: _486  and  _489
REMARK  207  A    between atoms: _489  and  _490
REMARK  208  A    between atoms: _493  and  _495
REMARK  209  A    between atoms: _495  and  _496
REMARK  210  A    between atoms: _495  and  _498
REMARK  211  A    between atoms: _498  and  _499
REMARK  212  A    between atoms: _502  and  _504
REMARK  213  A    between atoms: _504  and  _505
REMARK  214  A    between atoms: _508  and  _510
REMARK  215  A    between atoms: _510  and  _511
REMARK  216  A    between atoms: _510  and  _513
REMARK  217  A    between atoms: _513  and  _514
REMARK  218  A    between atoms: _519  and  _521
REMARK  219  A    between atoms: _521  and  _522
REMARK  220  A    between atoms: _521  and  _524
REMARK  221  A    between atoms: _524  and  _525
REMARK  222  A    between atoms: _528  and  _530
REMARK  223  A    between atoms: _530  and  _531
REMARK  224  A    between atoms: _530  and  _533
REMARK  225  A    between atoms: _533  and  _534
REMARK  226  A    between atoms: _537  and  _539
REMARK  227  A    between atoms: _539  and  _540
REMARK  228  A    between atoms: _539  and  _542
REMARK  229  A    between atoms: _542  and  _543
REMARK  230  A    between atoms: _543  and  _544
REMARK  231  A    between atoms: _544  and  _545
REMARK  232  A    between atoms: _545  and  _546
REMARK  233  A    between atoms: _550  and  _552
REMARK  234  A    between atoms: _552  and  _553
REMARK  235  A    between atoms: _552  and  _555
REMARK  236  A    between atoms: _558  and  _560
REMARK  237  A    between atoms: _560  and  _561
REMARK  238  A    between atoms: _564  and  _566
REMARK  239  A    between atoms: _566  and  _567
REMARK  240  A    between atoms: _566  and  _569
REMARK  241  A    between atoms: _569  and  _570
REMARK  242  A    between atoms: _573  and  _575
REMARK  243  A    between atoms: _575  and  _576
REMARK  244  A    between atoms: _575  and  _578
REMARK  245  A    between atoms: _578  and  _579
REMARK  246  A    between atoms: _585  and  _587
REMARK  247  A    between atoms: _587  and  _588
REMARK  248  A    between atoms: _590  and  _592
REMARK  249  A    between atoms: _592  and  _593
REMARK  250  A    between atoms: _592  and  _595
REMARK  251  A    between atoms: _595  and  _596
REMARK                            x       y       z     vdW  Elec       q    Type
REMARK                         _______ _______ _______ _____ _____    ______ ____
ROOT
ATOM      1  C   HIS A   3       5.214  28.874  -1.196  0.00  0.00    +0.241 C 
ATOM      2  N   ARG A   4       5.865  28.976  -0.031  0.00  0.00    -0.297 N 
ATOM      3  H   ARG A   4       5.744  28.223   0.676  0.00  0.00    +0.150 HD
ATOM      4  O   HIS A   3       5.282  29.732  -2.077  0.00  0.00    -0.273 OA
ENDROOT
BRANCH   2   5
ATOM      5  CA  ARG A   4       6.760  30.129   0.296  0.00  0.00    +0.149 C 
BRANCH   5   6
ATOM      6  C   ARG A   4       6.047  31.299   0.972  0.00  0.00    +0.241 C 
ATOM      7  O   ARG A   4       6.709  32.181   1.519  0.00  0.00    -0.273 OA
ATOM      8  N   ASP A   5       4.711  31.342   0.901  0.00  0.00    -0.297 N 
ATOM      9  H   ASP A   5       4.199  30.544   0.473  0.00  0.00    +0.150 HD
BRANCH   8  10
ATOM     10  CA  ASP A   5       3.958  32.481   1.410  0.00  0.00    +0.160 C 
BRANCH  10  11
ATOM     11  C   ASP A   5       2.576  32.049   1.931  0.00  0.00    +0.241 C 
ATOM     12  N   LEU A   6       2.534  30.851   2.519  0.00  0.00    -0.298 N 
ATOM     13  H   LEU A   6       3.374  30.238   2.497  0.00  0.00    +0.150 HD
ATOM     14  O   ASP A   5       1.574  32.780   1.823  0.00  0.00    -0.273 OA
BRANCH  12  15
ATOM     15  CA  LEU A   6       1.345  30.398   3.181  0.00  0.00    +0.137 C 
BRANCH  15  16
ATOM     16  C   LEU A   6       0.990  31.273   4.406  0.00  0.00    +0.227 C 
ATOM     17  O   LEU A   6       1.697  31.308   5.375  0.00  0.00    -0.286 OA
ENDBRANCH  15  16
BRANCH  15  18
ATOM     18  CB  LEU A   6       1.469  28.914   3.557  0.00  0.00    +0.028 C 
BRANCH  18  19
ATOM     19  CG  LEU A   6       0.173  28.275   4.061  0.00  0.00    +0.002 C 
ATOM     20  CD2 LEU A   6       0.378  26.829   4.531  0.00  0.00    +0.000 C 
ATOM     21  CD1 LEU A   6      -0.980  28.415   2.983  0.00  0.00    +0.000 C 
ENDBRANCH  18  19
ENDBRANCH  15  18
ENDBRANCH  12  15
ENDBRANCH  10  11
BRANCH  10  22
ATOM     22  CB  ASP A   5       3.846  33.565   0.346  0.00  0.00    +0.143 C 
BRANCH  22  23
ATOM     23  CG  ASP A   5       3.470  34.917   0.931  0.00  0.00    +0.367 C 
ATOM     24  OD2 ASP A   5       3.358  35.033   2.205  0.00  0.00    -0.246 OA
ATOM     25  OD1 ASP A   5       3.258  35.865   0.118  0.00  0.00    -0.246 OA
ENDBRANCH  22  23
ENDBRANCH  10  22
ENDBRANCH   8  10
ENDBRANCH   5   6
BRANCH   5  26
ATOM     26  CB  ARG A   4       7.456  30.675  -0.954  0.00  0.00    +0.033 C 
BRANCH  26  27
ATOM     27  CG  ARG A   4       8.561  29.777  -1.520  0.00  0.00    +0.045 C 
BRANCH  27  28
ATOM     28  CD  ARG A   4       9.244  30.377  -2.751  0.00  0.00    +0.174 C 
BRANCH  28  29
ATOM     29  NE  ARG A   4      10.581  29.806  -2.903  0.00  0.00    -0.265 N 
ATOM     30  CZ  ARG A   4      11.720  30.512  -2.880  0.00  0.00    +0.342 C 
ATOM     31  NH2 ARG A   4      11.705  31.837  -2.734  0.00  0.00    -0.292 N 
ATOM     32 HH21 ARG A   4      10.800  32.339  -2.636  0.00  0.00    +0.255 HD
ATOM     33 HH22 ARG A   4      12.599  32.369  -2.718  0.00  0.00    +0.255 HD
ATOM     34  NH1 ARG A   4      12.874  29.888  -3.019  0.00  0.00    -0.292 N 
ATOM     35 HH11 ARG A   4      13.763  30.428  -3.002  0.00  0.00    +0.255 HD
ATOM     36 HH12 ARG A   4      12.895  28.856  -3.145  0.00  0.00    +0.255 HD
ATOM     37  HE  ARG A   4      10.654  28.777  -3.039  0.00  0.00    +0.259 HD
ENDBRANCH  28  29
ENDBRANCH  27  28
ENDBRANCH  26  27
ENDBRANCH   5  26
ENDBRANCH   2   5
BRANCH   1  38
ATOM     38  CA  HIS A   3       4.350  27.639  -1.411  0.00  0.00    +0.155 C 
BRANCH  38  40
ATOM     39  C   VAL A   2       5.826  26.026  -2.389  0.00  0.00    +0.241 C 
ATOM     40  N   HIS A   3       5.096  26.391  -1.339  0.00  0.00    -0.297 N 
ATOM     41  H   HIS A   3       5.059  25.798  -0.485  0.00  0.00    +0.150 HD
ATOM     42  O   VAL A   2       5.853  26.692  -3.415  0.00  0.00    -0.273 OA
BRANCH  39  43
ATOM     43  CA  VAL A   2       6.615  24.726  -2.299  0.00  0.00    +0.148 C 
BRANCH  43  46
ATOM     44  C   TYR A   1       6.167  22.674  -3.548  0.00  0.00    +0.239 C 
ATOM     45  O   TYR A   1       6.147  21.991  -2.529  0.00  0.00    -0.274 OA
ATOM     46  N   VAL A   2       6.389  23.985  -3.533  0.00  0.00    -0.297 N 
ATOM     47  H   VAL A   2       6.402  24.501  -4.436  0.00  0.00    +0.150 HD
BRANCH  44  48
ATOM     48  CA  TYR A   1       5.994  22.007  -4.917  0.00  0.00    +0.149 C 
BRANCH  48  49
ATOM     49  N   TYR A   1       5.953  20.576  -4.724  0.00  0.00    -0.238 NA
ATOM     50  H   TYR A   1       5.106  20.133  -4.315  0.00  0.00    +0.142 HD
ENDBRANCH  48  49
BRANCH  48  51
ATOM     51  CB  TYR A   1       4.724  22.436  -5.611  0.00  0.00    +0.053 C 
BRANCH  51  52
ATOM     52  CG  TYR A   1       4.735  23.826  -6.198  0.00  0.00    -0.020 A 
ATOM     53  CD2 TYR A   1       3.999  24.866  -5.586  0.00  0.00    -0.001 A 
ATOM     54  CE2 TYR A   1       3.981  26.143  -6.110  0.00  0.00    +0.036 A 
ATOM     55  CZ  TYR A   1       4.673  26.409  -7.281  0.00  0.00    +0.134 A 
ATOM     56  CE1 TYR A   1       5.417  25.395  -7.912  0.00  0.00    +0.036 A 
ATOM     57  CD1 TYR A   1       5.431  24.104  -7.369  0.00  0.00    -0.001 A 
BRANCH  55  58
ATOM     58  OH  TYR A   1       4.625  27.678  -7.821  0.00  0.00    -0.506 OA
ATOM     59  HH  TYR A   1       5.167  27.704  -8.649  0.00  0.00    +0.292 HD
ENDBRANCH  55  58
ENDBRANCH  51  52
ENDBRANCH  48  51
ENDBRANCH  44  48
ENDBRANCH  43  46
BRANCH  43  60
ATOM     60  CB  VAL A   2       8.152  25.020  -2.081  0.00  0.00    +0.027 C 
ATOM     61  CG2 VAL A   2       8.386  25.973  -0.862  0.00  0.00    +0.002 C 
ATOM     62  CG1 VAL A   2       8.973  23.698  -1.919  0.00  0.00    +0.002 C 
ENDBRANCH  43  60
ENDBRANCH  39  43
ENDBRANCH  38  40
BRANCH  38  63
ATOM     63  CB  HIS A   3       3.154  27.657  -0.473  0.00  0.00    +0.076 C 
BRANCH  63  64
ATOM     64  CG  HIS A   3       2.155  28.718  -0.817  0.00  0.00    +0.082 A 
ATOM     65  ND1 HIS A   3       2.422  30.071  -0.690  0.00  0.00    -0.227 NA
ATOM     66  CE1 HIS A   3       1.355  30.758  -1.053  0.00  0.00    +0.199 A 
ATOM     67  NE2 HIS A   3       0.408  29.901  -1.405  0.00  0.00    -0.221 NA
ATOM     68  CD2 HIS A   3       0.891  28.624  -1.288  0.00  0.00    +0.115 A 
ENDBRANCH  63  64
ENDBRANCH  38  63
ENDBRANCH   1  38
TORSDOF 26
REMARK  Name = ../refined-set-2016/3f3t/3f3t_pocket.pdb
REMARK  251 active torsions:
REMARK  status: ('A' for Active; 'I' for Inactive)
REMARK    1  A    between atoms: _1  and  _3
REMARK    2  A    between atoms: _3  and  _4
REMARK    3  A    between atoms: _3  and  _6
REMARK    4  A    between atoms: _6  and  _7
REMARK    5  A    between atoms: _10  and  _12
REMARK    6  A    between atoms: _12  and  _13
REMARK    7  A    between atoms: _12  and  _15
REMARK    8  A    between atoms: _15  and  _16
REMARK    9  A    between atoms: _16  and  _17
REMARK   10  A    between atoms: _20  and  _22
REMARK   11  A    between atoms: _22  and  _23
REMARK   12  A    between atoms: _22  and  _25
REMARK   13  A    between atoms: _28  and  _30
REMARK   14  A    between atoms: _30  and  _31
REMARK   15  A    between atoms: _30  and  _33
REMARK   16  A    between atoms: _33  and  _34
REMARK   17  A    between atoms: _44  and  _46
REMARK   18  A    between atoms: _46  and  _47
REMARK   19  A    between atoms: _46  and  _49
REMARK   20  A    between atoms: _49  and  _50
REMARK   21  A    between atoms: _50  and  _51
REMARK   22  A    between atoms: _53  and  _55
REMARK   23  A    between atoms: _55  and  _56
REMARK   24  A    between atoms: _55  and  _58
REMARK   25  A    between atoms: _61  and  _63
REMARK   26  A    between atoms: _63  and  _64
REMARK   27  A    between atoms: _67  and  _69
REMARK   28  A    between atoms: _69  and  _70
REMARK   29  A    between atoms: _69  and  _72
REMARK   30  A    between atoms: _72  and  _73
REMARK   31  A    between atoms: _76  and  _78
REMARK   32  A    between atoms: _78  and  _79
REMARK   33  A    between atoms: _78  and  _81
REMARK   34  A    between atoms: _81  and  _82
REMARK   35  A    between atoms: _82  and  _83
REMARK   36  A    between atoms: _83  and  _84
REMARK   37  A    between atoms: _84  and  _85
REMARK   38  A    between atoms: _89  and  _91
REMARK   39  A    between atoms: _91  and  _92
REMARK   40  A    between atoms: _91  and  _94
REMARK   41  A    between atoms: _94  and  _95
REMARK   42  A    between atoms: _98  and  _100
REMARK   43  A    between atoms: _100  and  _101
REMARK   44  A    between atoms: _100  and  _103
REMARK   45  A    between atoms: _103  and  _104
REMARK   46  A    between atoms: _104  and  _105
REMARK   47  A    between atoms: _107  and  _109
REMARK   48  A    between atoms: _109  and  _110
REMARK   49  A    between atoms: _113  and  _115
REMARK   50  A    between atoms: _115  and  _116
REMARK   51  A    between atoms: _115  and  _118
REMARK   52  A    between atoms: _118  and  _119
REMARK   53  A    between atoms: _125  and  _127
REMARK   54  A    between atoms: _127  and  _128
REMARK   55  A    between atoms: _127  and  _130
REMARK   56  A    between atoms: _130  and  _131
REMARK   57  A    between atoms: _134  and  _136
REMARK   58  A    between atoms: _136  and  _137
REMARK   59  A    between atoms: _136  and  _139
REMARK   60  A    between atoms: _139  and  _140
REMARK   61  A    between atoms: _140  and  _141
REMARK   62  A    between atoms: _146  and  _148
REMARK   63  A    between atoms: _148  and  _149
REMARK   64  A    between atoms: _148  and  _151
REMARK   65  A    between atoms: _151  and  _152
REMARK   66  A    between atoms: _152  and  _153
REMARK   67  A    between atoms: _156  and  _158
REMARK   68  A    between atoms: _158  and  _159
REMARK   69  A    between atoms: _162  and  _164
REMARK   70  A    between atoms: _164  and  _165
REMARK   71  A    between atoms: _164  and  _167
REMARK   72  A    between atoms: _167  and  _168
REMARK   73  A    between atoms: _168  and  _169
REMARK   74  A    between atoms: _174  and  _176
REMARK   75  A    between atoms: _176  and  _177
REMARK   76  A    between atoms: _176  and  _179
REMARK   77  A    between atoms: _182  and  _184
REMARK   78  A    between atoms: _184  and  _185
REMARK   79  A    between atoms: _184  and  _187
REMARK   80  A    between atoms: _187  and  _188
REMARK   81  A    between atoms: _188  and  _189
REMARK   82  A    between atoms: _191  and  _193
REMARK   83  A    between atoms: _193  and  _194
REMARK   84  A    between atoms: _193  and  _196
REMARK   85  A    between atoms: _196  and  _197
REMARK   86  A    between atoms: _197  and  _198
REMARK   87  A    between atoms: _198  and  _199
REMARK   88  A    between atoms: _199  and  _200
REMARK   89  A    between atoms: _204  and  _206
REMARK   90  A    between atoms: _206  and  _207
REMARK   91  A    between atoms: _206  and  _209
REMARK   92  A    between atoms: _209  and  _210
REMARK   93  A    between atoms: _210  and  _211
REMARK   94  A    between atoms: _211  and  _212
REMARK   95  A    between atoms: _212  and  _213
REMARK   96  A    between atoms: _217  and  _219
REMARK   97  A    between atoms: _219  and  _220
REMARK   98  A    between atoms: _219  and  _222
REMARK   99  A    between atoms: _222  and  _223
REMARK  100  A    between atoms: _226  and  _228
REMARK  101  A    between atoms: _228  and  _229
REMARK  102  A    between atoms: _228  and  _231
REMARK  103  A    between atoms: _231  and  _232
REMARK  104  A    between atoms: _232  and  _233
REMARK  105  A    between atoms: _233  and  _234
REMARK  106  A    between atoms: _243  and  _245
REMARK  107  A    between atoms: _245  and  _246
REMARK  108  A    between atoms: _245  and  _248
REMARK  109  A    between atoms: _248  and  _249
REMARK  110  A    between atoms: _254  and  _256
REMARK  111  A    between atoms: _256  and  _257
REMARK  112  A    between atoms: _256  and  _259
REMARK  113  A    between atoms: _259  and  _260
REMARK  114  A    between atoms: _260  and  _261
REMARK  115  A    between atoms: _261  and  _262
REMARK  116  A    between atoms: _262  and  _263
REMARK  117  A    between atoms: _267  and  _269
REMARK  118  A    between atoms: _269  and  _270
REMARK  119  A    between atoms: _269  and  _272
REMARK  120  A    between atoms: _272  and  _273
REMARK  121  A    between atoms: _276  and  _278
REMARK  122  A    between atoms: _278  and  _279
REMARK  123  A    between atoms: _278  and  _281
REMARK  124  A    between atoms: _284  and  _286
REMARK  125  A    between atoms: _286  and  _287
REMARK  126  A    between atoms: _286  and  _289
REMARK  127  A    between atoms: _289  and  _290
REMARK  128  A    between atoms: _290  and  _291
REMARK  129  A    between atoms: _296  and  _298
REMARK  130  A    between atoms: _298  and  _299
REMARK  131  A    between atoms: _298  and  _301
REMARK  132  A    between atoms: _301  and  _302
REMARK  133  A    between atoms: _305  and  _307
REMARK  134  A    between atoms: _307  and  _308
REMARK  135  A    between atoms: _307  and  _310
REMARK  136  A    between atoms: _310  and  _311
REMARK  137  A    between atoms: _316  and  _317
REMARK  138  A    between atoms: _319  and  _321
REMARK  139  A    between atoms: _321  and  _322
REMARK  140  A    between atoms: _325  and  _327
REMARK  141  A    between atoms: _327  and  _328
REMARK  142  A    between atoms: _327  and  _330
REMARK  143  A    between atoms: _330  and  _331
REMARK  144  A    between atoms: _336  and  _337
REMARK  145  A    between atoms: _339  and  _341
REMARK  146  A    between atoms: _341  and  _342
REMARK  147  A    between atoms: _341  and  _344
REMARK  148  A    between atoms: _344  and  _345
REMARK  149  A    between atoms: _348  and  _350
REMARK  150  A    between atoms: _350  and  _351
REMARK  151  A    between atoms: _350  and  _353
REMARK  152  A    between atoms: _356  and  _358
REMARK  153  A    between atoms: _358  and  _359
REMARK  154  A    between atoms: _358  and  _361
REMARK  155  A    between atoms: _361  and  _362
REMARK  156  A    between atoms: _365  and  _367
REMARK  157  A    between atoms: _367  and  _368
REMARK  158  A    between atoms: _367  and  _370
REMARK  159  A    between atoms: _370  and  _371
REMARK  160  A    between atoms: _371  and  _372
REMARK  161  A    between atoms: _375  and  _377
REMARK  162  A    between atoms: _377  and  _378
REMARK  163  A    between atoms: _377  and  _380
REMARK  164  A    between atoms: _380  and  _381
REMARK  165  A    between atoms: _386  and  _387
REMARK  166  A    between atoms: _389  and  _391
REMARK  167  A    between atoms: _391  and  _392
REMARK  168  A    between atoms: _391  and  _394
REMARK  169  A    between atoms: _394  and  _395
REMARK  170  A    between atoms: _395  and  _396
REMARK  171  A    between atoms: _398  and  _400
REMARK  172  A    between atoms: _400  and  _401
REMARK  173  A    between atoms: _403  and  _405
REMARK  174  A    between atoms: _405  and  _406
REMARK  175  A    between atoms: _405  and  _408
REMARK  176  A    between atoms: _408  and  _409
REMARK  177  A    between atoms: _409  and  _410
REMARK  178  A    between atoms: _412  and  _414
REMARK  179  A    between atoms: _414  and  _415
REMARK  180  A    between atoms: _414  and  _417
REMARK  181  A    between atoms: _417  and  _418
REMARK  182  A    between atoms: _423  and  _424
REMARK  183  A    between atoms: _426  and  _428
REMARK  184  A    between atoms: _428  and  _429
REMARK  185  A    between atoms: _428  and  _431
REMARK  186  A    between atoms: _434  and  _436
REMARK  187  A    between atoms: _436  and  _437
REMARK  188  A    between atoms: _436  and  _439
REMARK  189  A    between atoms: _439  and  _440
REMARK  190  A    between atoms: _445  and  _446
REMARK  191  A    between atoms: _448  and  _450
REMARK  192  A    between atoms: _450  and  _451
REMARK  193  A    between atoms: _450  and  _453
REMARK  194  A    between atoms: _456  and  _458
REMARK  195  A    between atoms: _458  and  _459
REMARK  196  A    between atoms: _458  and  _461
REMARK  197  A    between atoms: _461  and  _462
REMARK  198  A    between atoms: _467  and  _469
REMARK  199  A    between atoms: _469  and  _470
REMARK  200  A    between atoms: _469  and  _472
REMARK  201  A    between atoms: _472  and  _473
REMARK  202  A    between atoms: _473  and  _474
REMARK  203  A    between atoms: _474  and  _475
REMARK  204  A    between atoms: _484  and  _486
REMARK  205  A    between atoms: _486  and  _487
REMARK  206  A    between atoms: _486  and  _489
REMARK  207  A    between atoms: _489  and  _490
REMARK  208  A    between atoms: _493  and  _495
REMARK  209  A    between atoms: _495  and  _496
REMARK  210  A    between atoms: _495  and  _498
REMARK  211  A    between atoms: _498  and  _499
REMARK  212  A    between atoms: _502  and  _504
REMARK  213  A    between atoms: _504  and  _505
REMARK  214  A    between atoms: _508  and  _510
REMARK  215  A    between atoms: _510  and  _511
REMARK  216  A    between atoms: _510  and  _513
REMARK  217  A    between atoms: _513  and  _514
REMARK  218  A    between atoms: _519  and  _521
REMARK  219  A    between atoms: _521  and  _522
REMARK  220  A    between atoms: _521  and  _524
REMARK  221  A    between atoms: _524  and  _525
REMARK  222  A    between atoms: _528  and  _530
REMARK  223  A    between atoms: _530  and  _531
REMARK  224  A    between atoms: _530  and  _533
REMARK  225  A    between atoms: _533  and  _534
REMARK  226  A    between atoms: _537  and  _539
REMARK  227  A    between atoms: _539  and  _540
REMARK  228  A    between atoms: _539  and  _542
REMARK  229  A    between atoms: _542  and  _543
REMARK  230  A    between atoms: _543  and  _544
REMARK  231  A    between atoms: _544  and  _545
REMARK  232  A    between atoms: _545  and  _546
REMARK  233  A    between atoms: _550  and  _552
REMARK  234  A    between atoms: _552  and  _553
REMARK  235  A    between atoms: _552  and  _555
REMARK  236  A    between atoms: _558  and  _560
REMARK  237  A    between atoms: _560  and  _561
REMARK  238  A    between atoms: _564  and  _566
REMARK  239  A    between atoms: _566  and  _567
REMARK  240  A    between atoms: _566  and  _569
REMARK  241  A    between atoms: _569  and  _570
REMARK  242  A    between atoms: _573  and  _575
REMARK  243  A    between atoms: _575  and  _576
REMARK  244  A    between atoms: _575  and  _578
REMARK  245  A    between atoms: _578  and  _579
REMARK  246  A    between atoms: _585  and  _587
REMARK  247  A    between atoms: _587  and  _588
REMARK  248  A    between atoms: _590  and  _592
REMARK  249  A    between atoms: _592  and  _593
REMARK  250  A    between atoms: _592  and  _595
REMARK  251  A    between atoms: _595  and  _596
REMARK                            x       y       z     vdW  Elec       q    Type
REMARK                         _______ _______ _______ _____ _____    ______ ____
ROOT
ATOM      1  C   ASN A   2      -4.313  33.008   0.489  0.00  0.00    +0.241 C 
ATOM      2  N   ILE A   3      -5.215  32.878   1.468  0.00  0.00    -0.297 N 
ATOM      3  H   ILE A   3      -5.139  33.472   2.318  0.00  0.00    +0.150 HD
ATOM      4  O   ASN A   2      -4.223  32.209  -0.472  0.00  0.00    -0.273 OA
ENDROOT
BRANCH   1   5
ATOM      5  CA  ASN A   2      -3.348  34.207   0.557  0.00  0.00    +0.158 C 
BRANCH   5   7
ATOM      6  C   ALA A   1      -3.861  36.151   1.959  0.00  0.00    +0.238 C 
ATOM      7  N   ASN A   2      -3.434  34.901   1.840  0.00  0.00    -0.297 N 
ATOM      8  H   ASN A   2      -3.147  34.391   2.700  0.00  0.00    +0.150 HD
ATOM      9  O   ALA A   1      -4.272  36.837   1.018  0.00  0.00    -0.274 OA
BRANCH   6  10
ATOM     10  CA  ALA A   1      -3.769  36.739   3.332  0.00  0.00    +0.145 C 
ATOM     11  CB  ALA A   1      -2.629  37.843   3.343  0.00  0.00    +0.028 C 
BRANCH  10  12
ATOM     12  N   ALA A   1      -3.606  35.704   4.377  0.00  0.00    -0.238 NA
ATOM     13  H   ALA A   1      -2.688  35.622   4.859  0.00  0.00    +0.142 HD
ENDBRANCH  10  12
ENDBRANCH   6  10
ENDBRANCH   5   7
BRANCH   5  14
ATOM     14  CB  ASN A   2      -1.926  33.723   0.324  0.00  0.00    +0.114 C 
BRANCH  14  15
ATOM     15  CG  ASN A   2      -1.012  34.813  -0.232  0.00  0.00    +0.222 C 
ATOM     16  ND2 ASN A   2       0.219  34.877   0.265  0.00  0.00    -0.329 N 
ATOM     17 HD21 ASN A   2       0.511  34.221   1.017  0.00  0.00    +0.145 HD
ATOM     18 HD22 ASN A   2       0.890  35.583  -0.098  0.00  0.00    +0.145 HD
ATOM     19  OD1 ASN A   2      -1.410  35.570  -1.127  0.00  0.00    -0.275 OA
ENDBRANCH  14  15
ENDBRANCH   5  14
ENDBRANCH   1   5
BRANCH   2  20
ATOM     20  CA  ILE A   3      -6.289  31.926   1.360  0.00  0.00    +0.149 C 
BRANCH  20  21
ATOM     21  C   ILE A   3      -7.584  32.642   0.941  0.00  0.00    +0.241 C 
ATOM     22  O   ILE A   3      -7.931  33.726   1.458  0.00  0.00    -0.273 OA
ATOM     23  N   LEU A   4      -8.253  32.041  -0.052  0.00  0.00    -0.298 N 
ATOM     24  H   LEU A   4      -7.865  31.159  -0.443  0.00  0.00    +0.150 HD
BRANCH  23  25
ATOM     25  CA  LEU A   4      -9.476  32.549  -0.606  0.00  0.00    +0.137 C 
BRANCH  25  26
ATOM     26  C   LEU A   4     -10.664  31.753  -0.021  0.00  0.00    +0.227 C 
ATOM     27  O   LEU A   4     -10.574  30.545   0.228  0.00  0.00    -0.286 OA
ENDBRANCH  25  26
BRANCH  25  28
ATOM     28  CB  LEU A   4      -9.427  32.417  -2.140  0.00  0.00    +0.028 C 
BRANCH  28  29
ATOM     29  CG  LEU A   4      -8.551  33.411  -2.899  0.00  0.00    +0.002 C 
ATOM     30  CD2 LEU A   4      -9.030  34.848  -2.776  0.00  0.00    +0.000 C 
ATOM     31  CD1 LEU A   4      -8.499  33.077  -4.323  0.00  0.00    +0.000 C 
ENDBRANCH  28  29
ENDBRANCH  25  28
ENDBRANCH  23  25
ENDBRANCH  20  21
BRANCH  20  32
ATOM     32  CB  ILE A   3      -6.547  31.122   2.634  0.00  0.00    +0.027 C 
ATOM     33  CG2 ILE A   3      -7.703  30.099   2.429  0.00  0.00    +0.002 C 
BRANCH  32  34
ATOM     34  CG1 ILE A   3      -5.222  30.558   3.224  0.00  0.00    +0.002 C 
ATOM     35  CD1 ILE A   3      -4.459  29.530   2.414  0.00  0.00    +0.000 C 
ENDBRANCH  32  34
ENDBRANCH  20  32
ENDBRANCH   2  20
TORSDOF 14
REMARK  Name = ../refined-set-2016/3f3t/3f3t_pocket.pdb
REMARK  251 active torsions:
REMARK  status: ('A' for Active; 'I' for Inactive)
REMARK    1  A    between atoms: _1  and  _3
REMARK    2  A    between atoms: _3  and  _4
REMARK    3  A    between atoms: _3  and  _6
REMARK    4  A    between atoms: _6  and  _7
REMARK    5  A    between atoms: _10  and  _12
REMARK    6  A    between atoms: _12  and  _13
REMARK    7  A    between atoms: _12  and  _15
REMARK    8  A    between atoms: _15  and  _16
REMARK    9  A    between atoms: _16  and  _17
REMARK   10  A    between atoms: _20  and  _22
REMARK   11  A    between atoms: _22  and  _23
REMARK   12  A    between atoms: _22  and  _25
REMARK   13  A    between atoms: _28  and  _30
REMARK   14  A    between atoms: _30  and  _31
REMARK   15  A    between atoms: _30  and  _33
REMARK   16  A    between atoms: _33  and  _34
REMARK   17  A    between atoms: _44  and  _46
REMARK   18  A    between atoms: _46  and  _47
REMARK   19  A    between atoms: _46  and  _49
REMARK   20  A    between atoms: _49  and  _50
REMARK   21  A    between atoms: _50  and  _51
REMARK   22  A    between atoms: _53  and  _55
REMARK   23  A    between atoms: _55  and  _56
REMARK   24  A    between atoms: _55  and  _58
REMARK   25  A    between atoms: _61  and  _63
REMARK   26  A    between atoms: _63  and  _64
REMARK   27  A    between atoms: _67  and  _69
REMARK   28  A    between atoms: _69  and  _70
REMARK   29  A    between atoms: _69  and  _72
REMARK   30  A    between atoms: _72  and  _73
REMARK   31  A    between atoms: _76  and  _78
REMARK   32  A    between atoms: _78  and  _79
REMARK   33  A    between atoms: _78  and  _81
REMARK   34  A    between atoms: _81  and  _82
REMARK   35  A    between atoms: _82  and  _83
REMARK   36  A    between atoms: _83  and  _84
REMARK   37  A    between atoms: _84  and  _85
REMARK   38  A    between atoms: _89  and  _91
REMARK   39  A    between atoms: _91  and  _92
REMARK   40  A    between atoms: _91  and  _94
REMARK   41  A    between atoms: _94  and  _95
REMARK   42  A    between atoms: _98  and  _100
REMARK   43  A    between atoms: _100  and  _101
REMARK   44  A    between atoms: _100  and  _103
REMARK   45  A    between atoms: _103  and  _104
REMARK   46  A    between atoms: _104  and  _105
REMARK   47  A    between atoms: _107  and  _109
REMARK   48  A    between atoms: _109  and  _110
REMARK   49  A    between atoms: _113  and  _115
REMARK   50  A    between atoms: _115  and  _116
REMARK   51  A    between atoms: _115  and  _118
REMARK   52  A    between atoms: _118  and  _119
REMARK   53  A    between atoms: _125  and  _127
REMARK   54  A    between atoms: _127  and  _128
REMARK   55  A    between atoms: _127  and  _130
REMARK   56  A    between atoms: _130  and  _131
REMARK   57  A    between atoms: _134  and  _136
REMARK   58  A    between atoms: _136  and  _137
REMARK   59  A    between atoms: _136  and  _139
REMARK   60  A    between atoms: _139  and  _140
REMARK   61  A    between atoms: _140  and  _141
REMARK   62  A    between atoms: _146  and  _148
REMARK   63  A    between atoms: _148  and  _149
REMARK   64  A    between atoms: _148  and  _151
REMARK   65  A    between atoms: _151  and  _152
REMARK   66  A    between atoms: _152  and  _153
REMARK   67  A    between atoms: _156  and  _158
REMARK   68  A    between atoms: _158  and  _159
REMARK   69  A    between atoms: _162  and  _164
REMARK   70  A    between atoms: _164  and  _165
REMARK   71  A    between atoms: _164  and  _167
REMARK   72  A    between atoms: _167  and  _168
REMARK   73  A    between atoms: _168  and  _169
REMARK   74  A    between atoms: _174  and  _176
REMARK   75  A    between atoms: _176  and  _177
REMARK   76  A    between atoms: _176  and  _179
REMARK   77  A    between atoms: _182  and  _184
REMARK   78  A    between atoms: _184  and  _185
REMARK   79  A    between atoms: _184  and  _187
REMARK   80  A    between atoms: _187  and  _188
REMARK   81  A    between atoms: _188  and  _189
REMARK   82  A    between atoms: _191  and  _193
REMARK   83  A    between atoms: _193  and  _194
REMARK   84  A    between atoms: _193  and  _196
REMARK   85  A    between atoms: _196  and  _197
REMARK   86  A    between atoms: _197  and  _198
REMARK   87  A    between atoms: _198  and  _199
REMARK   88  A    between atoms: _199  and  _200
REMARK   89  A    between atoms: _204  and  _206
REMARK   90  A    between atoms: _206  and  _207
REMARK   91  A    between atoms: _206  and  _209
REMARK   92  A    between atoms: _209  and  _210
REMARK   93  A    between atoms: _210  and  _211
REMARK   94  A    between atoms: _211  and  _212
REMARK   95  A    between atoms: _212  and  _213
REMARK   96  A    between atoms: _217  and  _219
REMARK   97  A    between atoms: _219  and  _220
REMARK   98  A    between atoms: _219  and  _222
REMARK   99  A    between atoms: _222  and  _223
REMARK  100  A    between atoms: _226  and  _228
REMARK  101  A    between atoms: _228  and  _229
REMARK  102  A    between atoms: _228  and  _231
REMARK  103  A    between atoms: _231  and  _232
REMARK  104  A    between atoms: _232  and  _233
REMARK  105  A    between atoms: _233  and  _234
REMARK  106  A    between atoms: _243  and  _245
REMARK  107  A    between atoms: _245  and  _246
REMARK  108  A    between atoms: _245  and  _248
REMARK  109  A    between atoms: _248  and  _249
REMARK  110  A    between atoms: _254  and  _256
REMARK  111  A    between atoms: _256  and  _257
REMARK  112  A    between atoms: _256  and  _259
REMARK  113  A    between atoms: _259  and  _260
REMARK  114  A    between atoms: _260  and  _261
REMARK  115  A    between atoms: _261  and  _262
REMARK  116  A    between atoms: _262  and  _263
REMARK  117  A    between atoms: _267  and  _269
REMARK  118  A    between atoms: _269  and  _270
REMARK  119  A    between atoms: _269  and  _272
REMARK  120  A    between atoms: _272  and  _273
REMARK  121  A    between atoms: _276  and  _278
REMARK  122  A    between atoms: _278  and  _279
REMARK  123  A    between atoms: _278  and  _281
REMARK  124  A    between atoms: _284  and  _286
REMARK  125  A    between atoms: _286  and  _287
REMARK  126  A    between atoms: _286  and  _289
REMARK  127  A    between atoms: _289  and  _290
REMARK  128  A    between atoms: _290  and  _291
REMARK  129  A    between atoms: _296  and  _298
REMARK  130  A    between atoms: _298  and  _299
REMARK  131  A    between atoms: _298  and  _301
REMARK  132  A    between atoms: _301  and  _302
REMARK  133  A    between atoms: _305  and  _307
REMARK  134  A    between atoms: _307  and  _308
REMARK  135  A    between atoms: _307  and  _310
REMARK  136  A    between atoms: _310  and  _311
REMARK  137  A    between atoms: _316  and  _317
REMARK  138  A    between atoms: _319  and  _321
REMARK  139  A    between atoms: _321  and  _322
REMARK  140  A    between atoms: _325  and  _327
REMARK  141  A    between atoms: _327  and  _328
REMARK  142  A    between atoms: _327  and  _330
REMARK  143  A    between atoms: _330  and  _331
REMARK  144  A    between atoms: _336  and  _337
REMARK  145  A    between atoms: _339  and  _341
REMARK  146  A    between atoms: _341  and  _342
REMARK  147  A    between atoms: _341  and  _344
REMARK  148  A    between atoms: _344  and  _345
REMARK  149  A    between atoms: _348  and  _350
REMARK  150  A    between atoms: _350  and  _351
REMARK  151  A    between atoms: _350  and  _353
REMARK  152  A    between atoms: _356  and  _358
REMARK  153  A    between atoms: _358  and  _359
REMARK  154  A    between atoms: _358  and  _361
REMARK  155  A    between atoms: _361  and  _362
REMARK  156  A    between atoms: _365  and  _367
REMARK  157  A    between atoms: _367  and  _368
REMARK  158  A    between atoms: _367  and  _370
REMARK  159  A    between atoms: _370  and  _371
REMARK  160  A    between atoms: _371  and  _372
REMARK  161  A    between atoms: _375  and  _377
REMARK  162  A    between atoms: _377  and  _378
REMARK  163  A    between atoms: _377  and  _380
REMARK  164  A    between atoms: _380  and  _381
REMARK  165  A    between atoms: _386  and  _387
REMARK  166  A    between atoms: _389  and  _391
REMARK  167  A    between atoms: _391  and  _392
REMARK  168  A    between atoms: _391  and  _394
REMARK  169  A    between atoms: _394  and  _395
REMARK  170  A    between atoms: _395  and  _396
REMARK  171  A    between atoms: _398  and  _400
REMARK  172  A    between atoms: _400  and  _401
REMARK  173  A    between atoms: _403  and  _405
REMARK  174  A    between atoms: _405  and  _406
REMARK  175  A    between atoms: _405  and  _408
REMARK  176  A    between atoms: _408  and  _409
REMARK  177  A    between atoms: _409  and  _410
REMARK  178  A    between atoms: _412  and  _414
REMARK  179  A    between atoms: _414  and  _415
REMARK  180  A    between atoms: _414  and  _417
REMARK  181  A    between atoms: _417  and  _418
REMARK  182  A    between atoms: _423  and  _424
REMARK  183  A    between atoms: _426  and  _428
REMARK  184  A    between atoms: _428  and  _429
REMARK  185  A    between atoms: _428  and  _431
REMARK  186  A    between atoms: _434  and  _436
REMARK  187  A    between atoms: _436  and  _437
REMARK  188  A    between atoms: _436  and  _439
REMARK  189  A    between atoms: _439  and  _440
REMARK  190  A    between atoms: _445  and  _446
REMARK  191  A    between atoms: _448  and  _450
REMARK  192  A    between atoms: _450  and  _451
REMARK  193  A    between atoms: _450  and  _453
REMARK  194  A    between atoms: _456  and  _458
REMARK  195  A    between atoms: _458  and  _459
REMARK  196  A    between atoms: _458  and  _461
REMARK  197  A    between atoms: _461  and  _462
REMARK  198  A    between atoms: _467  and  _469
REMARK  199  A    between atoms: _469  and  _470
REMARK  200  A    between atoms: _469  and  _472
REMARK  201  A    between atoms: _472  and  _473
REMARK  202  A    between atoms: _473  and  _474
REMARK  203  A    between atoms: _474  and  _475
REMARK  204  A    between atoms: _484  and  _486
REMARK  205  A    between atoms: _486  and  _487
REMARK  206  A    between atoms: _486  and  _489
REMARK  207  A    between atoms: _489  and  _490
REMARK  208  A    between atoms: _493  and  _495
REMARK  209  A    between atoms: _495  and  _496
REMARK  210  A    between atoms: _495  and  _498
REMARK  211  A    between atoms: _498  and  _499
REMARK  212  A    between atoms: _502  and  _504
REMARK  213  A    between atoms: _504  and  _505
REMARK  214  A    between atoms: _508  and  _510
REMARK  215  A    between atoms: _510  and  _511
REMARK  216  A    between atoms: _510  and  _513
REMARK  217  A    between atoms: _513  and  _514
REMARK  218  A    between atoms: _519  and  _521
REMARK  219  A    between atoms: _521  and  _522
REMARK  220  A    between atoms: _521  and  _524
REMARK  221  A    between atoms: _524  and  _525
REMARK  222  A    between atoms: _528  and  _530
REMARK  223  A    between atoms: _530  and  _531
REMARK  224  A    between atoms: _530  and  _533
REMARK  225  A    between atoms: _533  and  _534
REMARK  226  A    between atoms: _537  and  _539
REMARK  227  A    between atoms: _539  and  _540
REMARK  228  A    between atoms: _539  and  _542
REMARK  229  A    between atoms: _542  and  _543
REMARK  230  A    between atoms: _543  and  _544
REMARK  231  A    between atoms: _544  and  _545
REMARK  232  A    between atoms: _545  and  _546
REMARK  233  A    between atoms: _550  and  _552
REMARK  234  A    between atoms: _552  and  _553
REMARK  235  A    between atoms: _552  and  _555
REMARK  236  A    between atoms: _558  and  _560
REMARK  237  A    between atoms: _560  and  _561
REMARK  238  A    between atoms: _564  and  _566
REMARK  239  A    between atoms: _566  and  _567
REMARK  240  A    between atoms: _566  and  _569
REMARK  241  A    between atoms: _569  and  _570
REMARK  242  A    between atoms: _573  and  _575
REMARK  243  A    between atoms: _575  and  _576
REMARK  244  A    between atoms: _575  and  _578
REMARK  245  A    between atoms: _578  and  _579
REMARK  246  A    between atoms: _585  and  _587
REMARK  247  A    between atoms: _587  and  _588
REMARK  248  A    between atoms: _590  and  _592
REMARK  249  A    between atoms: _592  and  _593
REMARK  250  A    between atoms: _592  and  _595
REMARK  251  A    between atoms: _595  and  _596
REMARK                            x       y       z     vdW  Elec       q    Type
REMARK                         _______ _______ _______ _____ _____    ______ ____
ROOT
ATOM      1  CA  ASP A   4      -1.013  33.448  -4.075  0.00  0.00    +0.160 C 
ENDROOT
BRANCH   1   4
ATOM      2  C   ALA A   3      -2.508  31.689  -3.360  0.00  0.00    +0.241 C 
ATOM      3  O   ALA A   3      -1.749  31.398  -2.435  0.00  0.00    -0.273 OA
ATOM      4  N   ASP A   4      -2.194  32.605  -4.267  0.00  0.00    -0.297 N 
ATOM      5  H   ASP A   4      -2.786  32.724  -5.113  0.00  0.00    +0.150 HD
BRANCH   2   6
ATOM      6  CA  ALA A   3      -3.853  30.985  -3.500  0.00  0.00    +0.149 C 
ATOM      7  CB  ALA A   3      -5.004  31.989  -3.552  0.00  0.00    +0.031 C 
BRANCH   6   9
ATOM      8  C   VAL A   2      -4.672  28.875  -2.599  0.00  0.00    +0.241 C 
ATOM      9  N   ALA A   3      -4.081  30.055  -2.386  0.00  0.00    -0.297 N 
ATOM     10  H   ALA A   3      -3.781  30.316  -1.425  0.00  0.00    +0.150 HD
ATOM     11  O   VAL A   2      -5.049  28.482  -3.742  0.00  0.00    -0.273 OA
BRANCH   8  12
ATOM     12  CA  VAL A   2      -4.877  28.024  -1.349  0.00  0.00    +0.148 C 
BRANCH  12  15
ATOM     13  C   LYS A   1      -7.297  28.148  -1.183  0.00  0.00    +0.238 C 
ATOM     14  O   LYS A   1      -7.313  29.363  -0.956  0.00  0.00    -0.274 OA
ATOM     15  N   VAL A   2      -6.200  27.452  -1.394  0.00  0.00    -0.297 N 
ATOM     16  H   VAL A   2      -6.292  26.438  -1.604  0.00  0.00    +0.150 HD
BRANCH  13  17
ATOM     17  CA  LYS A   1      -8.552  27.357  -1.243  0.00  0.00    +0.145 C 
BRANCH  17  18
ATOM     18  N   LYS A   1      -9.501  27.869  -0.266  0.00  0.00    -0.238 NA
ATOM     19  H   LYS A   1      -9.592  28.893  -0.109  0.00  0.00    +0.142 HD
ENDBRANCH  17  18
BRANCH  17  20
ATOM     20  CB  LYS A   1      -9.115  27.432  -2.653  0.00  0.00    +0.026 C 
BRANCH  20  21
ATOM     21  CG  LYS A   1     -10.470  26.805  -2.807  0.00  0.00    -0.000 C 
BRANCH  21  22
ATOM     22  CD  LYS A   1     -10.882  26.572  -4.280  0.00  0.00    -0.024 C 
BRANCH  22  23
ATOM     23  CE  LYS A   1     -12.316  25.996  -4.309  0.00  0.00    -0.086 C 
BRANCH  23  24
ATOM     24  NZ  LYS A   1     -12.800  25.728  -5.690  0.00  0.00    +0.380 N 
ATOM     25  HZ1 LYS A   1     -13.765  25.343  -5.649  0.00  0.00    -0.089 HD
ATOM     26  HZ2 LYS A   1     -12.170  25.039  -6.149  0.00  0.00    -0.089 HD
ATOM     27  HZ3 LYS A   1     -12.801  26.615  -6.234  0.00  0.00    -0.089 HD
ENDBRANCH  23  24
ENDBRANCH  22  23
ENDBRANCH  21  22
ENDBRANCH  20  21
ENDBRANCH  17  20
ENDBRANCH  13  17
ENDBRANCH  12  15
BRANCH  12  28
ATOM     28  CB  VAL A   2      -3.819  26.890  -1.280  0.00  0.00    +0.027 C 
ATOM     29  CG2 VAL A   2      -3.966  26.110   0.017  0.00  0.00    +0.002 C 
ATOM     30  CG1 VAL A   2      -2.404  27.416  -1.415  0.00  0.00    +0.002 C 
ENDBRANCH  12  28
ENDBRANCH   8  12
ENDBRANCH   6   9
ENDBRANCH   2   6
ENDBRANCH   1   4
BRANCH   1  31
ATOM     31  C   ASP A   4      -1.193  34.761  -4.817  0.00  0.00    +0.241 C 
ATOM     32  N   PHE A   5      -1.355  35.841  -4.040  0.00  0.00    -0.297 N 
ATOM     33  H   PHE A   5      -1.332  35.698  -3.010  0.00  0.00    +0.150 HD
ATOM     34  O   ASP A   4      -1.187  34.778  -6.036  0.00  0.00    -0.273 OA
BRANCH  32  35
ATOM     35  CA  PHE A   5      -1.562  37.208  -4.529  0.00  0.00    +0.153 C 
BRANCH  35  36
ATOM     36  C   PHE A   5      -0.249  37.841  -4.984  0.00  0.00    +0.241 C 
ATOM     37  N   GLY A   6       0.860  37.165  -4.712  0.00  0.00    -0.295 N 
ATOM     38  H   GLY A   6       0.834  36.380  -4.030  0.00  0.00    +0.150 HD
ATOM     39  O   PHE A   5      -0.235  38.945  -5.545  0.00  0.00    -0.273 OA
BRANCH  37  40
ATOM     40  CA  GLY A   6       2.119  37.520  -5.368  0.00  0.00    +0.176 C 
BRANCH  40  41
ATOM     41  C   GLY A   6       2.736  38.856  -5.022  0.00  0.00    +0.243 C 
ATOM     42  N   LEU A   7       2.740  39.204  -3.734  0.00  0.00    -0.298 N 
ATOM     43  H   LEU A   7       2.254  38.582  -3.056  0.00  0.00    +0.150 HD
ATOM     44  O   GLY A   6       3.225  39.538  -5.905  0.00  0.00    -0.273 OA
BRANCH  42  45
ATOM     45  CA  LEU A   7       3.397  40.426  -3.214  0.00  0.00    +0.137 C 
BRANCH  45  46
ATOM     46  C   LEU A   7       4.913  40.355  -3.405  0.00  0.00    +0.227 C 
ATOM     47  O   LEU A   7       5.599  39.643  -2.649  0.00  0.00    -0.286 OA
ENDBRANCH  45  46
BRANCH  45  48
ATOM     48  CB  LEU A   7       3.129  40.599  -1.709  0.00  0.00    +0.028 C 
BRANCH  48  49
ATOM     49  CG  LEU A   7       1.726  40.597  -1.087  0.00  0.00    +0.002 C 
ATOM     50  CD2 LEU A   7       1.819  41.235   0.304  0.00  0.00    +0.000 C 
ATOM     51  CD1 LEU A   7       1.089  39.202  -1.039  0.00  0.00    +0.000 C 
ENDBRANCH  48  49
ENDBRANCH  45  48
ENDBRANCH  42  45
ENDBRANCH  40  41
ENDBRANCH  37  40
ENDBRANCH  35  36
BRANCH  35  52
ATOM     52  CB  PHE A   5      -2.188  38.104  -3.433  0.00  0.00    +0.055 C 
BRANCH  52  53
ATOM     53  CG  PHE A   5      -3.666  37.893  -3.212  0.00  0.00    -0.020 A 
ATOM     54  CD2 PHE A   5      -4.111  37.118  -2.166  0.00  0.00    -0.004 A 
ATOM     55  CE2 PHE A   5      -5.477  36.935  -1.925  0.00  0.00    -0.000 A 
ATOM     56  CZ  PHE A   5      -6.420  37.536  -2.766  0.00  0.00    -0.000 A 
ATOM     57  CE1 PHE A   5      -5.986  38.317  -3.835  0.00  0.00    -0.000 A 
ATOM     58  CD1 PHE A   5      -4.608  38.500  -4.045  0.00  0.00    -0.004 A 
ENDBRANCH  52  53
ENDBRANCH  35  52
ENDBRANCH  32  35
ENDBRANCH   1  31
BRANCH   1  59
ATOM     59  CB  ASP A   4       0.269  32.719  -4.504  0.00  0.00    +0.143 C 
BRANCH  59  60
ATOM     60  CG  ASP A   4       1.566  33.463  -4.103  0.00  0.00    +0.367 C 
ATOM     61  OD2 ASP A   4       2.621  32.775  -3.953  0.00  0.00    -0.246 OA
ATOM     62  OD1 ASP A   4       1.561  34.715  -3.976  0.00  0.00    -0.246 OA
ENDBRANCH  59  60
ENDBRANCH   1  59
TORSDOF 26
REMARK  Name = ../refined-set-2016/3f3t/3f3t_pocket.pdb
REMARK  251 active torsions:
REMARK  status: ('A' for Active; 'I' for Inactive)
REMARK    1  A    between atoms: _1  and  _3
REMARK    2  A    between atoms: _3  and  _4
REMARK    3  A    between atoms: _3  and  _6
REMARK    4  A    between atoms: _6  and  _7
REMARK    5  A    between atoms: _10  and  _12
REMARK    6  A    between atoms: _12  and  _13
REMARK    7  A    between atoms: _12  and  _15
REMARK    8  A    between atoms: _15  and  _16
REMARK    9  A    between atoms: _16  and  _17
REMARK   10  A    between atoms: _20  and  _22
REMARK   11  A    between atoms: _22  and  _23
REMARK   12  A    between atoms: _22  and  _25
REMARK   13  A    between atoms: _28  and  _30
REMARK   14  A    between atoms: _30  and  _31
REMARK   15  A    between atoms: _30  and  _33
REMARK   16  A    between atoms: _33  and  _34
REMARK   17  A    between atoms: _44  and  _46
REMARK   18  A    between atoms: _46  and  _47
REMARK   19  A    between atoms: _46  and  _49
REMARK   20  A    between atoms: _49  and  _50
REMARK   21  A    between atoms: _50  and  _51
REMARK   22  A    between atoms: _53  and  _55
REMARK   23  A    between atoms: _55  and  _56
REMARK   24  A    between atoms: _55  and  _58
REMARK   25  A    between atoms: _61  and  _63
REMARK   26  A    between atoms: _63  and  _64
REMARK   27  A    between atoms: _67  and  _69
REMARK   28  A    between atoms: _69  and  _70
REMARK   29  A    between atoms: _69  and  _72
REMARK   30  A    between atoms: _72  and  _73
REMARK   31  A    between atoms: _76  and  _78
REMARK   32  A    between atoms: _78  and  _79
REMARK   33  A    between atoms: _78  and  _81
REMARK   34  A    between atoms: _81  and  _82
REMARK   35  A    between atoms: _82  and  _83
REMARK   36  A    between atoms: _83  and  _84
REMARK   37  A    between atoms: _84  and  _85
REMARK   38  A    between atoms: _89  and  _91
REMARK   39  A    between atoms: _91  and  _92
REMARK   40  A    between atoms: _91  and  _94
REMARK   41  A    between atoms: _94  and  _95
REMARK   42  A    between atoms: _98  and  _100
REMARK   43  A    between atoms: _100  and  _101
REMARK   44  A    between atoms: _100  and  _103
REMARK   45  A    between atoms: _103  and  _104
REMARK   46  A    between atoms: _104  and  _105
REMARK   47  A    between atoms: _107  and  _109
REMARK   48  A    between atoms: _109  and  _110
REMARK   49  A    between atoms: _113  and  _115
REMARK   50  A    between atoms: _115  and  _116
REMARK   51  A    between atoms: _115  and  _118
REMARK   52  A    between atoms: _118  and  _119
REMARK   53  A    between atoms: _125  and  _127
REMARK   54  A    between atoms: _127  and  _128
REMARK   55  A    between atoms: _127  and  _130
REMARK   56  A    between atoms: _130  and  _131
REMARK   57  A    between atoms: _134  and  _136
REMARK   58  A    between atoms: _136  and  _137
REMARK   59  A    between atoms: _136  and  _139
REMARK   60  A    between atoms: _139  and  _140
REMARK   61  A    between atoms: _140  and  _141
REMARK   62  A    between atoms: _146  and  _148
REMARK   63  A    between atoms: _148  and  _149
REMARK   64  A    between atoms: _148  and  _151
REMARK   65  A    between atoms: _151  and  _152
REMARK   66  A    between atoms: _152  and  _153
REMARK   67  A    between atoms: _156  and  _158
REMARK   68  A    between atoms: _158  and  _159
REMARK   69  A    between atoms: _162  and  _164
REMARK   70  A    between atoms: _164  and  _165
REMARK   71  A    between atoms: _164  and  _167
REMARK   72  A    between atoms: _167  and  _168
REMARK   73  A    between atoms: _168  and  _169
REMARK   74  A    between atoms: _174  and  _176
REMARK   75  A    between atoms: _176  and  _177
REMARK   76  A    between atoms: _176  and  _179
REMARK   77  A    between atoms: _182  and  _184
REMARK   78  A    between atoms: _184  and  _185
REMARK   79  A    between atoms: _184  and  _187
REMARK   80  A    between atoms: _187  and  _188
REMARK   81  A    between atoms: _188  and  _189
REMARK   82  A    between atoms: _191  and  _193
REMARK   83  A    between atoms: _193  and  _194
REMARK   84  A    between atoms: _193  and  _196
REMARK   85  A    between atoms: _196  and  _197
REMARK   86  A    between atoms: _197  and  _198
REMARK   87  A    between atoms: _198  and  _199
REMARK   88  A    between atoms: _199  and  _200
REMARK   89  A    between atoms: _204  and  _206
REMARK   90  A    between atoms: _206  and  _207
REMARK   91  A    between atoms: _206  and  _209
REMARK   92  A    between atoms: _209  and  _210
REMARK   93  A    between atoms: _210  and  _211
REMARK   94  A    between atoms: _211  and  _212
REMARK   95  A    between atoms: _212  and  _213
REMARK   96  A    between atoms: _217  and  _219
REMARK   97  A    between atoms: _219  and  _220
REMARK   98  A    between atoms: _219  and  _222
REMARK   99  A    between atoms: _222  and  _223
REMARK  100  A    between atoms: _226  and  _228
REMARK  101  A    between atoms: _228  and  _229
REMARK  102  A    between atoms: _228  and  _231
REMARK  103  A    between atoms: _231  and  _232
REMARK  104  A    between atoms: _232  and  _233
REMARK  105  A    between atoms: _233  and  _234
REMARK  106  A    between atoms: _243  and  _245
REMARK  107  A    between atoms: _245  and  _246
REMARK  108  A    between atoms: _245  and  _248
REMARK  109  A    between atoms: _248  and  _249
REMARK  110  A    between atoms: _254  and  _256
REMARK  111  A    between atoms: _256  and  _257
REMARK  112  A    between atoms: _256  and  _259
REMARK  113  A    between atoms: _259  and  _260
REMARK  114  A    between atoms: _260  and  _261
REMARK  115  A    between atoms: _261  and  _262
REMARK  116  A    between atoms: _262  and  _263
REMARK  117  A    between atoms: _267  and  _269
REMARK  118  A    between atoms: _269  and  _270
REMARK  119  A    between atoms: _269  and  _272
REMARK  120  A    between atoms: _272  and  _273
REMARK  121  A    between atoms: _276  and  _278
REMARK  122  A    between atoms: _278  and  _279
REMARK  123  A    between atoms: _278  and  _281
REMARK  124  A    between atoms: _284  and  _286
REMARK  125  A    between atoms: _286  and  _287
REMARK  126  A    between atoms: _286  and  _289
REMARK  127  A    between atoms: _289  and  _290
REMARK  128  A    between atoms: _290  and  _291
REMARK  129  A    between atoms: _296  and  _298
REMARK  130  A    between atoms: _298  and  _299
REMARK  131  A    between atoms: _298  and  _301
REMARK  132  A    between atoms: _301  and  _302
REMARK  133  A    between atoms: _305  and  _307
REMARK  134  A    between atoms: _307  and  _308
REMARK  135  A    between atoms: _307  and  _310
REMARK  136  A    between atoms: _310  and  _311
REMARK  137  A    between atoms: _316  and  _317
REMARK  138  A    between atoms: _319  and  _321
REMARK  139  A    between atoms: _321  and  _322
REMARK  140  A    between atoms: _325  and  _327
REMARK  141  A    between atoms: _327  and  _328
REMARK  142  A    between atoms: _327  and  _330
REMARK  143  A    between atoms: _330  and  _331
REMARK  144  A    between atoms: _336  and  _337
REMARK  145  A    between atoms: _339  and  _341
REMARK  146  A    between atoms: _341  and  _342
REMARK  147  A    between atoms: _341  and  _344
REMARK  148  A    between atoms: _344  and  _345
REMARK  149  A    between atoms: _348  and  _350
REMARK  150  A    between atoms: _350  and  _351
REMARK  151  A    between atoms: _350  and  _353
REMARK  152  A    between atoms: _356  and  _358
REMARK  153  A    between atoms: _358  and  _359
REMARK  154  A    between atoms: _358  and  _361
REMARK  155  A    between atoms: _361  and  _362
REMARK  156  A    between atoms: _365  and  _367
REMARK  157  A    between atoms: _367  and  _368
REMARK  158  A    between atoms: _367  and  _370
REMARK  159  A    between atoms: _370  and  _371
REMARK  160  A    between atoms: _371  and  _372
REMARK  161  A    between atoms: _375  and  _377
REMARK  162  A    between atoms: _377  and  _378
REMARK  163  A    between atoms: _377  and  _380
REMARK  164  A    between atoms: _380  and  _381
REMARK  165  A    between atoms: _386  and  _387
REMARK  166  A    between atoms: _389  and  _391
REMARK  167  A    between atoms: _391  and  _392
REMARK  168  A    between atoms: _391  and  _394
REMARK  169  A    between atoms: _394  and  _395
REMARK  170  A    between atoms: _395  and  _396
REMARK  171  A    between atoms: _398  and  _400
REMARK  172  A    between atoms: _400  and  _401
REMARK  173  A    between atoms: _403  and  _405
REMARK  174  A    between atoms: _405  and  _406
REMARK  175  A    between atoms: _405  and  _408
REMARK  176  A    between atoms: _408  and  _409
REMARK  177  A    between atoms: _409  and  _410
REMARK  178  A    between atoms: _412  and  _414
REMARK  179  A    between atoms: _414  and  _415
REMARK  180  A    between atoms: _414  and  _417
REMARK  181  A    between atoms: _417  and  _418
REMARK  182  A    between atoms: _423  and  _424
REMARK  183  A    between atoms: _426  and  _428
REMARK  184  A    between atoms: _428  and  _429
REMARK  185  A    between atoms: _428  and  _431
REMARK  186  A    between atoms: _434  and  _436
REMARK  187  A    between atoms: _436  and  _437
REMARK  188  A    between atoms: _436  and  _439
REMARK  189  A    between atoms: _439  and  _440
REMARK  190  A    between atoms: _445  and  _446
REMARK  191  A    between atoms: _448  and  _450
REMARK  192  A    between atoms: _450  and  _451
REMARK  193  A    between atoms: _450  and  _453
REMARK  194  A    between atoms: _456  and  _458
REMARK  195  A    between atoms: _458  and  _459
REMARK  196  A    between atoms: _458  and  _461
REMARK  197  A    between atoms: _461  and  _462
REMARK  198  A    between atoms: _467  and  _469
REMARK  199  A    between atoms: _469  and  _470
REMARK  200  A    between atoms: _469  and  _472
REMARK  201  A    between atoms: _472  and  _473
REMARK  202  A    between atoms: _473  and  _474
REMARK  203  A    between atoms: _474  and  _475
REMARK  204  A    between atoms: _484  and  _486
REMARK  205  A    between atoms: _486  and  _487
REMARK  206  A    between atoms: _486  and  _489
REMARK  207  A    between atoms: _489  and  _490
REMARK  208  A    between atoms: _493  and  _495
REMARK  209  A    between atoms: _495  and  _496
REMARK  210  A    between atoms: _495  and  _498
REMARK  211  A    between atoms: _498  and  _499
REMARK  212  A    between atoms: _502  and  _504
REMARK  213  A    between atoms: _504  and  _505
REMARK  214  A    between atoms: _508  and  _510
REMARK  215  A    between atoms: _510  and  _511
REMARK  216  A    between atoms: _510  and  _513
REMARK  217  A    between atoms: _513  and  _514
REMARK  218  A    between atoms: _519  and  _521
REMARK  219  A    between atoms: _521  and  _522
REMARK  220  A    between atoms: _521  and  _524
REMARK  221  A    between atoms: _524  and  _525
REMARK  222  A    between atoms: _528  and  _530
REMARK  223  A    between atoms: _530  and  _531
REMARK  224  A    between atoms: _530  and  _533
REMARK  225  A    between atoms: _533  and  _534
REMARK  226  A    between atoms: _537  and  _539
REMARK  227  A    between atoms: _539  and  _540
REMARK  228  A    between atoms: _539  and  _542
REMARK  229  A    between atoms: _542  and  _543
REMARK  230  A    between atoms: _543  and  _544
REMARK  231  A    between atoms: _544  and  _545
REMARK  232  A    between atoms: _545  and  _546
REMARK  233  A    between atoms: _550  and  _552
REMARK  234  A    between atoms: _552  and  _553
REMARK  235  A    between atoms: _552  and  _555
REMARK  236  A    between atoms: _558  and  _560
REMARK  237  A    between atoms: _560  and  _561
REMARK  238  A    between atoms: _564  and  _566
REMARK  239  A    between atoms: _566  and  _567
REMARK  240  A    between atoms: _566  and  _569
REMARK  241  A    between atoms: _569  and  _570
REMARK  242  A    between atoms: _573  and  _575
REMARK  243  A    between atoms: _575  and  _576
REMARK  244  A    between atoms: _575  and  _578
REMARK  245  A    between atoms: _578  and  _579
REMARK  246  A    between atoms: _585  and  _587
REMARK  247  A    between atoms: _587  and  _588
REMARK  248  A    between atoms: _590  and  _592
REMARK  249  A    between atoms: _592  and  _593
REMARK  250  A    between atoms: _592  and  _595
REMARK  251  A    between atoms: _595  and  _596
REMARK                            x       y       z     vdW  Elec       q    Type
REMARK                         _______ _______ _______ _____ _____    ______ ____
ROOT
ATOM      1  O   HOH     1      -5.241  26.183 -11.695  0.00  0.00    +0.000 OA
ENDROOT
TORSDOF 0
REMARK  Name = ../refined-set-2016/3f3t/3f3t_pocket.pdb
REMARK  251 active torsions:
REMARK  status: ('A' for Active; 'I' for Inactive)
REMARK    1  A    between atoms: _1  and  _3
REMARK    2  A    between atoms: _3  and  _4
REMARK    3  A    between atoms: _3  and  _6
REMARK    4  A    between atoms: _6  and  _7
REMARK    5  A    between atoms: _10  and  _12
REMARK    6  A    between atoms: _12  and  _13
REMARK    7  A    between atoms: _12  and  _15
REMARK    8  A    between atoms: _15  and  _16
REMARK    9  A    between atoms: _16  and  _17
REMARK   10  A    between atoms: _20  and  _22
REMARK   11  A    between atoms: _22  and  _23
REMARK   12  A    between atoms: _22  and  _25
REMARK   13  A    between atoms: _28  and  _30
REMARK   14  A    between atoms: _30  and  _31
REMARK   15  A    between atoms: _30  and  _33
REMARK   16  A    between atoms: _33  and  _34
REMARK   17  A    between atoms: _44  and  _46
REMARK   18  A    between atoms: _46  and  _47
REMARK   19  A    between atoms: _46  and  _49
REMARK   20  A    between atoms: _49  and  _50
REMARK   21  A    between atoms: _50  and  _51
REMARK   22  A    between atoms: _53  and  _55
REMARK   23  A    between atoms: _55  and  _56
REMARK   24  A    between atoms: _55  and  _58
REMARK   25  A    between atoms: _61  and  _63
REMARK   26  A    between atoms: _63  and  _64
REMARK   27  A    between atoms: _67  and  _69
REMARK   28  A    between atoms: _69  and  _70
REMARK   29  A    between atoms: _69  and  _72
REMARK   30  A    between atoms: _72  and  _73
REMARK   31  A    between atoms: _76  and  _78
REMARK   32  A    between atoms: _78  and  _79
REMARK   33  A    between atoms: _78  and  _81
REMARK   34  A    between atoms: _81  and  _82
REMARK   35  A    between atoms: _82  and  _83
REMARK   36  A    between atoms: _83  and  _84
REMARK   37  A    between atoms: _84  and  _85
REMARK   38  A    between atoms: _89  and  _91
REMARK   39  A    between atoms: _91  and  _92
REMARK   40  A    between atoms: _91  and  _94
REMARK   41  A    between atoms: _94  and  _95
REMARK   42  A    between atoms: _98  and  _100
REMARK   43  A    between atoms: _100  and  _101
REMARK   44  A    between atoms: _100  and  _103
REMARK   45  A    between atoms: _103  and  _104
REMARK   46  A    between atoms: _104  and  _105
REMARK   47  A    between atoms: _107  and  _109
REMARK   48  A    between atoms: _109  and  _110
REMARK   49  A    between atoms: _113  and  _115
REMARK   50  A    between atoms: _115  and  _116
REMARK   51  A    between atoms: _115  and  _118
REMARK   52  A    between atoms: _118  and  _119
REMARK   53  A    between atoms: _125  and  _127
REMARK   54  A    between atoms: _127  and  _128
REMARK   55  A    between atoms: _127  and  _130
REMARK   56  A    between atoms: _130  and  _131
REMARK   57  A    between atoms: _134  and  _136
REMARK   58  A    between atoms: _136  and  _137
REMARK   59  A    between atoms: _136  and  _139
REMARK   60  A    between atoms: _139  and  _140
REMARK   61  A    between atoms: _140  and  _141
REMARK   62  A    between atoms: _146  and  _148
REMARK   63  A    between atoms: _148  and  _149
REMARK   64  A    between atoms: _148  and  _151
REMARK   65  A    between atoms: _151  and  _152
REMARK   66  A    between atoms: _152  and  _153
REMARK   67  A    between atoms: _156  and  _158
REMARK   68  A    between atoms: _158  and  _159
REMARK   69  A    between atoms: _162  and  _164
REMARK   70  A    between atoms: _164  and  _165
REMARK   71  A    between atoms: _164  and  _167
REMARK   72  A    between atoms: _167  and  _168
REMARK   73  A    between atoms: _168  and  _169
REMARK   74  A    between atoms: _174  and  _176
REMARK   75  A    between atoms: _176  and  _177
REMARK   76  A    between atoms: _176  and  _179
REMARK   77  A    between atoms: _182  and  _184
REMARK   78  A    between atoms: _184  and  _185
REMARK   79  A    between atoms: _184  and  _187
REMARK   80  A    between atoms: _187  and  _188
REMARK   81  A    between atoms: _188  and  _189
REMARK   82  A    between atoms: _191  and  _193
REMARK   83  A    between atoms: _193  and  _194
REMARK   84  A    between atoms: _193  and  _196
REMARK   85  A    between atoms: _196  and  _197
REMARK   86  A    between atoms: _197  and  _198
REMARK   87  A    between atoms: _198  and  _199
REMARK   88  A    between atoms: _199  and  _200
REMARK   89  A    between atoms: _204  and  _206
REMARK   90  A    between atoms: _206  and  _207
REMARK   91  A    between atoms: _206  and  _209
REMARK   92  A    between atoms: _209  and  _210
REMARK   93  A    between atoms: _210  and  _211
REMARK   94  A    between atoms: _211  and  _212
REMARK   95  A    between atoms: _212  and  _213
REMARK   96  A    between atoms: _217  and  _219
REMARK   97  A    between atoms: _219  and  _220
REMARK   98  A    between atoms: _219  and  _222
REMARK   99  A    between atoms: _222  and  _223
REMARK  100  A    between atoms: _226  and  _228
REMARK  101  A    between atoms: _228  and  _229
REMARK  102  A    between atoms: _228  and  _231
REMARK  103  A    between atoms: _231  and  _232
REMARK  104  A    between atoms: _232  and  _233
REMARK  105  A    between atoms: _233  and  _234
REMARK  106  A    between atoms: _243  and  _245
REMARK  107  A    between atoms: _245  and  _246
REMARK  108  A    between atoms: _245  and  _248
REMARK  109  A    between atoms: _248  and  _249
REMARK  110  A    between atoms: _254  and  _256
REMARK  111  A    between atoms: _256  and  _257
REMARK  112  A    between atoms: _256  and  _259
REMARK  113  A    between atoms: _259  and  _260
REMARK  114  A    between atoms: _260  and  _261
REMARK  115  A    between atoms: _261  and  _262
REMARK  116  A    between atoms: _262  and  _263
REMARK  117  A    between atoms: _267  and  _269
REMARK  118  A    between atoms: _269  and  _270
REMARK  119  A    between atoms: _269  and  _272
REMARK  120  A    between atoms: _272  and  _273
REMARK  121  A    between atoms: _276  and  _278
REMARK  122  A    between atoms: _278  and  _279
REMARK  123  A    between atoms: _278  and  _281
REMARK  124  A    between atoms: _284  and  _286
REMARK  125  A    between atoms: _286  and  _287
REMARK  126  A    between atoms: _286  and  _289
REMARK  127  A    between atoms: _289  and  _290
REMARK  128  A    between atoms: _290  and  _291
REMARK  129  A    between atoms: _296  and  _298
REMARK  130  A    between atoms: _298  and  _299
REMARK  131  A    between atoms: _298  and  _301
REMARK  132  A    between atoms: _301  and  _302
REMARK  133  A    between atoms: _305  and  _307
REMARK  134  A    between atoms: _307  and  _308
REMARK  135  A    between atoms: _307  and  _310
REMARK  136  A    between atoms: _310  and  _311
REMARK  137  A    between atoms: _316  and  _317
REMARK  138  A    between atoms: _319  and  _321
REMARK  139  A    between atoms: _321  and  _322
REMARK  140  A    between atoms: _325  and  _327
REMARK  141  A    between atoms: _327  and  _328
REMARK  142  A    between atoms: _327  and  _330
REMARK  143  A    between atoms: _330  and  _331
REMARK  144  A    between atoms: _336  and  _337
REMARK  145  A    between atoms: _339  and  _341
REMARK  146  A    between atoms: _341  and  _342
REMARK  147  A    between atoms: _341  and  _344
REMARK  148  A    between atoms: _344  and  _345
REMARK  149  A    between atoms: _348  and  _350
REMARK  150  A    between atoms: _350  and  _351
REMARK  151  A    between atoms: _350  and  _353
REMARK  152  A    between atoms: _356  and  _358
REMARK  153  A    between atoms: _358  and  _359
REMARK  154  A    between atoms: _358  and  _361
REMARK  155  A    between atoms: _361  and  _362
REMARK  156  A    between atoms: _365  and  _367
REMARK  157  A    between atoms: _367  and  _368
REMARK  158  A    between atoms: _367  and  _370
REMARK  159  A    between atoms: _370  and  _371
REMARK  160  A    between atoms: _371  and  _372
REMARK  161  A    between atoms: _375  and  _377
REMARK  162  A    between atoms: _377  and  _378
REMARK  163  A    between atoms: _377  and  _380
REMARK  164  A    between atoms: _380  and  _381
REMARK  165  A    between atoms: _386  and  _387
REMARK  166  A    between atoms: _389  and  _391
REMARK  167  A    between atoms: _391  and  _392
REMARK  168  A    between atoms: _391  and  _394
REMARK  169  A    between atoms: _394  and  _395
REMARK  170  A    between atoms: _395  and  _396
REMARK  171  A    between atoms: _398  and  _400
REMARK  172  A    between atoms: _400  and  _401
REMARK  173  A    between atoms: _403  and  _405
REMARK  174  A    between atoms: _405  and  _406
REMARK  175  A    between atoms: _405  and  _408
REMARK  176  A    between atoms: _408  and  _409
REMARK  177  A    between atoms: _409  and  _410
REMARK  178  A    between atoms: _412  and  _414
REMARK  179  A    between atoms: _414  and  _415
REMARK  180  A    between atoms: _414  and  _417
REMARK  181  A    between atoms: _417  and  _418
REMARK  182  A    between atoms: _423  and  _424
REMARK  183  A    between atoms: _426  and  _428
REMARK  184  A    between atoms: _428  and  _429
REMARK  185  A    between atoms: _428  and  _431
REMARK  186  A    between atoms: _434  and  _436
REMARK  187  A    between atoms: _436  and  _437
REMARK  188  A    between atoms: _436  and  _439
REMARK  189  A    between atoms: _439  and  _440
REMARK  190  A    between atoms: _445  and  _446
REMARK  191  A    between atoms: _448  and  _450
REMARK  192  A    between atoms: _450  and  _451
REMARK  193  A    between atoms: _450  and  _453
REMARK  194  A    between atoms: _456  and  _458
REMARK  195  A    between atoms: _458  and  _459
REMARK  196  A    between atoms: _458  and  _461
REMARK  197  A    between atoms: _461  and  _462
REMARK  198  A    between atoms: _467  and  _469
REMARK  199  A    between atoms: _469  and  _470
REMARK  200  A    between atoms: _469  and  _472
REMARK  201  A    between atoms: _472  and  _473
REMARK  202  A    between atoms: _473  and  _474
REMARK  203  A    between atoms: _474  and  _475
REMARK  204  A    between atoms: _484  and  _486
REMARK  205  A    between atoms: _486  and  _487
REMARK  206  A    between atoms: _486  and  _489
REMARK  207  A    between atoms: _489  and  _490
REMARK  208  A    between atoms: _493  and  _495
REMARK  209  A    between atoms: _495  and  _496
REMARK  210  A    between atoms: _495  and  _498
REMARK  211  A    between atoms: _498  and  _499
REMARK  212  A    between atoms: _502  and  _504
REMARK  213  A    between atoms: _504  and  _505
REMARK  214  A    between atoms: _508  and  _510
REMARK  215  A    between atoms: _510  and  _511
REMARK  216  A    between atoms: _510  and  _513
REMARK  217  A    between atoms: _513  and  _514
REMARK  218  A    between atoms: _519  and  _521
REMARK  219  A    between atoms: _521  and  _522
REMARK  220  A    between atoms: _521  and  _524
REMARK  221  A    between atoms: _524  and  _525
REMARK  222  A    between atoms: _528  and  _530
REMARK  223  A    between atoms: _530  and  _531
REMARK  224  A    between atoms: _530  and  _533
REMARK  225  A    between atoms: _533  and  _534
REMARK  226  A    between atoms: _537  and  _539
REMARK  227  A    between atoms: _539  and  _540
REMARK  228  A    between atoms: _539  and  _542
REMARK  229  A    between atoms: _542  and  _543
REMARK  230  A    between atoms: _543  and  _544
REMARK  231  A    between atoms: _544  and  _545
REMARK  232  A    between atoms: _545  and  _546
REMARK  233  A    between atoms: _550  and  _552
REMARK  234  A    between atoms: _552  and  _553
REMARK  235  A    between atoms: _552  and  _555
REMARK  236  A    between atoms: _558  and  _560
REMARK  237  A    between atoms: _560  and  _561
REMARK  238  A    between atoms: _564  and  _566
REMARK  239  A    between atoms: _566  and  _567
REMARK  240  A    between atoms: _566  and  _569
REMARK  241  A    between atoms: _569  and  _570
REMARK  242  A    between atoms: _573  and  _575
REMARK  243  A    between atoms: _575  and  _576
REMARK  244  A    between atoms: _575  and  _578
REMARK  245  A    between atoms: _578  and  _579
REMARK  246  A    between atoms: _585  and  _587
REMARK  247  A    between atoms: _587  and  _588
REMARK  248  A    between atoms: _590  and  _592
REMARK  249  A    between atoms: _592  and  _593
REMARK  250  A    between atoms: _592  and  _595
REMARK  251  A    between atoms: _595  and  _596
REMARK                            x       y       z     vdW  Elec       q    Type
REMARK                         _______ _______ _______ _____ _____    ______ ____
ROOT
ATOM      1  O   HOH     1      -6.861  24.077  -8.768  0.00  0.00    +0.000 OA
ENDROOT
TORSDOF 0
REMARK  Name = ../refined-set-2016/3f3t/3f3t_pocket.pdb
REMARK  251 active torsions:
REMARK  status: ('A' for Active; 'I' for Inactive)
REMARK    1  A    between atoms: _1  and  _3
REMARK    2  A    between atoms: _3  and  _4
REMARK    3  A    between atoms: _3  and  _6
REMARK    4  A    between atoms: _6  and  _7
REMARK    5  A    between atoms: _10  and  _12
REMARK    6  A    between atoms: _12  and  _13
REMARK    7  A    between atoms: _12  and  _15
REMARK    8  A    between atoms: _15  and  _16
REMARK    9  A    between atoms: _16  and  _17
REMARK   10  A    between atoms: _20  and  _22
REMARK   11  A    between atoms: _22  and  _23
REMARK   12  A    between atoms: _22  and  _25
REMARK   13  A    between atoms: _28  and  _30
REMARK   14  A    between atoms: _30  and  _31
REMARK   15  A    between atoms: _30  and  _33
REMARK   16  A    between atoms: _33  and  _34
REMARK   17  A    between atoms: _44  and  _46
REMARK   18  A    between atoms: _46  and  _47
REMARK   19  A    between atoms: _46  and  _49
REMARK   20  A    between atoms: _49  and  _50
REMARK   21  A    between atoms: _50  and  _51
REMARK   22  A    between atoms: _53  and  _55
REMARK   23  A    between atoms: _55  and  _56
REMARK   24  A    between atoms: _55  and  _58
REMARK   25  A    between atoms: _61  and  _63
REMARK   26  A    between atoms: _63  and  _64
REMARK   27  A    between atoms: _67  and  _69
REMARK   28  A    between atoms: _69  and  _70
REMARK   29  A    between atoms: _69  and  _72
REMARK   30  A    between atoms: _72  and  _73
REMARK   31  A    between atoms: _76  and  _78
REMARK   32  A    between atoms: _78  and  _79
REMARK   33  A    between atoms: _78  and  _81
REMARK   34  A    between atoms: _81  and  _82
REMARK   35  A    between atoms: _82  and  _83
REMARK   36  A    between atoms: _83  and  _84
REMARK   37  A    between atoms: _84  and  _85
REMARK   38  A    between atoms: _89  and  _91
REMARK   39  A    between atoms: _91  and  _92
REMARK   40  A    between atoms: _91  and  _94
REMARK   41  A    between atoms: _94  and  _95
REMARK   42  A    between atoms: _98  and  _100
REMARK   43  A    between atoms: _100  and  _101
REMARK   44  A    between atoms: _100  and  _103
REMARK   45  A    between atoms: _103  and  _104
REMARK   46  A    between atoms: _104  and  _105
REMARK   47  A    between atoms: _107  and  _109
REMARK   48  A    between atoms: _109  and  _110
REMARK   49  A    between atoms: _113  and  _115
REMARK   50  A    between atoms: _115  and  _116
REMARK   51  A    between atoms: _115  and  _118
REMARK   52  A    between atoms: _118  and  _119
REMARK   53  A    between atoms: _125  and  _127
REMARK   54  A    between atoms: _127  and  _128
REMARK   55  A    between atoms: _127  and  _130
REMARK   56  A    between atoms: _130  and  _131
REMARK   57  A    between atoms: _134  and  _136
REMARK   58  A    between atoms: _136  and  _137
REMARK   59  A    between atoms: _136  and  _139
REMARK   60  A    between atoms: _139  and  _140
REMARK   61  A    between atoms: _140  and  _141
REMARK   62  A    between atoms: _146  and  _148
REMARK   63  A    between atoms: _148  and  _149
REMARK   64  A    between atoms: _148  and  _151
REMARK   65  A    between atoms: _151  and  _152
REMARK   66  A    between atoms: _152  and  _153
REMARK   67  A    between atoms: _156  and  _158
REMARK   68  A    between atoms: _158  and  _159
REMARK   69  A    between atoms: _162  and  _164
REMARK   70  A    between atoms: _164  and  _165
REMARK   71  A    between atoms: _164  and  _167
REMARK   72  A    between atoms: _167  and  _168
REMARK   73  A    between atoms: _168  and  _169
REMARK   74  A    between atoms: _174  and  _176
REMARK   75  A    between atoms: _176  and  _177
REMARK   76  A    between atoms: _176  and  _179
REMARK   77  A    between atoms: _182  and  _184
REMARK   78  A    between atoms: _184  and  _185
REMARK   79  A    between atoms: _184  and  _187
REMARK   80  A    between atoms: _187  and  _188
REMARK   81  A    between atoms: _188  and  _189
REMARK   82  A    between atoms: _191  and  _193
REMARK   83  A    between atoms: _193  and  _194
REMARK   84  A    between atoms: _193  and  _196
REMARK   85  A    between atoms: _196  and  _197
REMARK   86  A    between atoms: _197  and  _198
REMARK   87  A    between atoms: _198  and  _199
REMARK   88  A    between atoms: _199  and  _200
REMARK   89  A    between atoms: _204  and  _206
REMARK   90  A    between atoms: _206  and  _207
REMARK   91  A    between atoms: _206  and  _209
REMARK   92  A    between atoms: _209  and  _210
REMARK   93  A    between atoms: _210  and  _211
REMARK   94  A    between atoms: _211  and  _212
REMARK   95  A    between atoms: _212  and  _213
REMARK   96  A    between atoms: _217  and  _219
REMARK   97  A    between atoms: _219  and  _220
REMARK   98  A    between atoms: _219  and  _222
REMARK   99  A    between atoms: _222  and  _223
REMARK  100  A    between atoms: _226  and  _228
REMARK  101  A    between atoms: _228  and  _229
REMARK  102  A    between atoms: _228  and  _231
REMARK  103  A    between atoms: _231  and  _232
REMARK  104  A    between atoms: _232  and  _233
REMARK  105  A    between atoms: _233  and  _234
REMARK  106  A    between atoms: _243  and  _245
REMARK  107  A    between atoms: _245  and  _246
REMARK  108  A    between atoms: _245  and  _248
REMARK  109  A    between atoms: _248  and  _249
REMARK  110  A    between atoms: _254  and  _256
REMARK  111  A    between atoms: _256  and  _257
REMARK  112  A    between atoms: _256  and  _259
REMARK  113  A    between atoms: _259  and  _260
REMARK  114  A    between atoms: _260  and  _261
REMARK  115  A    between atoms: _261  and  _262
REMARK  116  A    between atoms: _262  and  _263
REMARK  117  A    between atoms: _267  and  _269
REMARK  118  A    between atoms: _269  and  _270
REMARK  119  A    between atoms: _269  and  _272
REMARK  120  A    between atoms: _272  and  _273
REMARK  121  A    between atoms: _276  and  _278
REMARK  122  A    between atoms: _278  and  _279
REMARK  123  A    between atoms: _278  and  _281
REMARK  124  A    between atoms: _284  and  _286
REMARK  125  A    between atoms: _286  and  _287
REMARK  126  A    between atoms: _286  and  _289
REMARK  127  A    between atoms: _289  and  _290
REMARK  128  A    between atoms: _290  and  _291
REMARK  129  A    between atoms: _296  and  _298
REMARK  130  A    between atoms: _298  and  _299
REMARK  131  A    between atoms: _298  and  _301
REMARK  132  A    between atoms: _301  and  _302
REMARK  133  A    between atoms: _305  and  _307
REMARK  134  A    between atoms: _307  and  _308
REMARK  135  A    between atoms: _307  and  _310
REMARK  136  A    between atoms: _310  and  _311
REMARK  137  A    between atoms: _316  and  _317
REMARK  138  A    between atoms: _319  and  _321
REMARK  139  A    between atoms: _321  and  _322
REMARK  140  A    between atoms: _325  and  _327
REMARK  141  A    between atoms: _327  and  _328
REMARK  142  A    between atoms: _327  and  _330
REMARK  143  A    between atoms: _330  and  _331
REMARK  144  A    between atoms: _336  and  _337
REMARK  145  A    between atoms: _339  and  _341
REMARK  146  A    between atoms: _341  and  _342
REMARK  147  A    between atoms: _341  and  _344
REMARK  148  A    between atoms: _344  and  _345
REMARK  149  A    between atoms: _348  and  _350
REMARK  150  A    between atoms: _350  and  _351
REMARK  151  A    between atoms: _350  and  _353
REMARK  152  A    between atoms: _356  and  _358
REMARK  153  A    between atoms: _358  and  _359
REMARK  154  A    between atoms: _358  and  _361
REMARK  155  A    between atoms: _361  and  _362
REMARK  156  A    between atoms: _365  and  _367
REMARK  157  A    between atoms: _367  and  _368
REMARK  158  A    between atoms: _367  and  _370
REMARK  159  A    between atoms: _370  and  _371
REMARK  160  A    between atoms: _371  and  _372
REMARK  161  A    between atoms: _375  and  _377
REMARK  162  A    between atoms: _377  and  _378
REMARK  163  A    between atoms: _377  and  _380
REMARK  164  A    between atoms: _380  and  _381
REMARK  165  A    between atoms: _386  and  _387
REMARK  166  A    between atoms: _389  and  _391
REMARK  167  A    between atoms: _391  and  _392
REMARK  168  A    between atoms: _391  and  _394
REMARK  169  A    between atoms: _394  and  _395
REMARK  170  A    between atoms: _395  and  _396
REMARK  171  A    between atoms: _398  and  _400
REMARK  172  A    between atoms: _400  and  _401
REMARK  173  A    between atoms: _403  and  _405
REMARK  174  A    between atoms: _405  and  _406
REMARK  175  A    between atoms: _405  and  _408
REMARK  176  A    between atoms: _408  and  _409
REMARK  177  A    between atoms: _409  and  _410
REMARK  178  A    between atoms: _412  and  _414
REMARK  179  A    between atoms: _414  and  _415
REMARK  180  A    between atoms: _414  and  _417
REMARK  181  A    between atoms: _417  and  _418
REMARK  182  A    between atoms: _423  and  _424
REMARK  183  A    between atoms: _426  and  _428
REMARK  184  A    between atoms: _428  and  _429
REMARK  185  A    between atoms: _428  and  _431
REMARK  186  A    between atoms: _434  and  _436
REMARK  187  A    between atoms: _436  and  _437
REMARK  188  A    between atoms: _436  and  _439
REMARK  189  A    between atoms: _439  and  _440
REMARK  190  A    between atoms: _445  and  _446
REMARK  191  A    between atoms: _448  and  _450
REMARK  192  A    between atoms: _450  and  _451
REMARK  193  A    between atoms: _450  and  _453
REMARK  194  A    between atoms: _456  and  _458
REMARK  195  A    between atoms: _458  and  _459
REMARK  196  A    between atoms: _458  and  _461
REMARK  197  A    between atoms: _461  and  _462
REMARK  198  A    between atoms: _467  and  _469
REMARK  199  A    between atoms: _469  and  _470
REMARK  200  A    between atoms: _469  and  _472
REMARK  201  A    between atoms: _472  and  _473
REMARK  202  A    between atoms: _473  and  _474
REMARK  203  A    between atoms: _474  and  _475
REMARK  204  A    between atoms: _484  and  _486
REMARK  205  A    between atoms: _486  and  _487
REMARK  206  A    between atoms: _486  and  _489
REMARK  207  A    between atoms: _489  and  _490
REMARK  208  A    between atoms: _493  and  _495
REMARK  209  A    between atoms: _495  and  _496
REMARK  210  A    between atoms: _495  and  _498
REMARK  211  A    between atoms: _498  and  _499
REMARK  212  A    between atoms: _502  and  _504
REMARK  213  A    between atoms: _504  and  _505
REMARK  214  A    between atoms: _508  and  _510
REMARK  215  A    between atoms: _510  and  _511
REMARK  216  A    between atoms: _510  and  _513
REMARK  217  A    between atoms: _513  and  _514
REMARK  218  A    between atoms: _519  and  _521
REMARK  219  A    between atoms: _521  and  _522
REMARK  220  A    between atoms: _521  and  _524
REMARK  221  A    between atoms: _524  and  _525
REMARK  222  A    between atoms: _528  and  _530
REMARK  223  A    between atoms: _530  and  _531
REMARK  224  A    between atoms: _530  and  _533
REMARK  225  A    between atoms: _533  and  _534
REMARK  226  A    between atoms: _537  and  _539
REMARK  227  A    between atoms: _539  and  _540
REMARK  228  A    between atoms: _539  and  _542
REMARK  229  A    between atoms: _542  and  _543
REMARK  230  A    between atoms: _543  and  _544
REMARK  231  A    between atoms: _544  and  _545
REMARK  232  A    between atoms: _545  and  _546
REMARK  233  A    between atoms: _550  and  _552
REMARK  234  A    between atoms: _552  and  _553
REMARK  235  A    between atoms: _552  and  _555
REMARK  236  A    between atoms: _558  and  _560
REMARK  237  A    between atoms: _560  and  _561
REMARK  238  A    between atoms: _564  and  _566
REMARK  239  A    between atoms: _566  and  _567
REMARK  240  A    between atoms: _566  and  _569
REMARK  241  A    between atoms: _569  and  _570
REMARK  242  A    between atoms: _573  and  _575
REMARK  243  A    between atoms: _575  and  _576
REMARK  244  A    between atoms: _575  and  _578
REMARK  245  A    between atoms: _578  and  _579
REMARK  246  A    between atoms: _585  and  _587
REMARK  247  A    between atoms: _587  and  _588
REMARK  248  A    between atoms: _590  and  _592
REMARK  249  A    between atoms: _592  and  _593
REMARK  250  A    between atoms: _592  and  _595
REMARK  251  A    between atoms: _595  and  _596
REMARK                            x       y       z     vdW  Elec       q    Type
REMARK                         _______ _______ _______ _____ _____    ______ ____
ROOT
ATOM      1  O   HOH     1      -0.911  42.264 -10.874  0.00  0.00    +0.000 OA
ENDROOT
TORSDOF 0
REMARK  Name = ../refined-set-2016/3f3t/3f3t_pocket.pdb
REMARK  251 active torsions:
REMARK  status: ('A' for Active; 'I' for Inactive)
REMARK    1  A    between atoms: _1  and  _3
REMARK    2  A    between atoms: _3  and  _4
REMARK    3  A    between atoms: _3  and  _6
REMARK    4  A    between atoms: _6  and  _7
REMARK    5  A    between atoms: _10  and  _12
REMARK    6  A    between atoms: _12  and  _13
REMARK    7  A    between atoms: _12  and  _15
REMARK    8  A    between atoms: _15  and  _16
REMARK    9  A    between atoms: _16  and  _17
REMARK   10  A    between atoms: _20  and  _22
REMARK   11  A    between atoms: _22  and  _23
REMARK   12  A    between atoms: _22  and  _25
REMARK   13  A    between atoms: _28  and  _30
REMARK   14  A    between atoms: _30  and  _31
REMARK   15  A    between atoms: _30  and  _33
REMARK   16  A    between atoms: _33  and  _34
REMARK   17  A    between atoms: _44  and  _46
REMARK   18  A    between atoms: _46  and  _47
REMARK   19  A    between atoms: _46  and  _49
REMARK   20  A    between atoms: _49  and  _50
REMARK   21  A    between atoms: _50  and  _51
REMARK   22  A    between atoms: _53  and  _55
REMARK   23  A    between atoms: _55  and  _56
REMARK   24  A    between atoms: _55  and  _58
REMARK   25  A    between atoms: _61  and  _63
REMARK   26  A    between atoms: _63  and  _64
REMARK   27  A    between atoms: _67  and  _69
REMARK   28  A    between atoms: _69  and  _70
REMARK   29  A    between atoms: _69  and  _72
REMARK   30  A    between atoms: _72  and  _73
REMARK   31  A    between atoms: _76  and  _78
REMARK   32  A    between atoms: _78  and  _79
REMARK   33  A    between atoms: _78  and  _81
REMARK   34  A    between atoms: _81  and  _82
REMARK   35  A    between atoms: _82  and  _83
REMARK   36  A    between atoms: _83  and  _84
REMARK   37  A    between atoms: _84  and  _85
REMARK   38  A    between atoms: _89  and  _91
REMARK   39  A    between atoms: _91  and  _92
REMARK   40  A    between atoms: _91  and  _94
REMARK   41  A    between atoms: _94  and  _95
REMARK   42  A    between atoms: _98  and  _100
REMARK   43  A    between atoms: _100  and  _101
REMARK   44  A    between atoms: _100  and  _103
REMARK   45  A    between atoms: _103  and  _104
REMARK   46  A    between atoms: _104  and  _105
REMARK   47  A    between atoms: _107  and  _109
REMARK   48  A    between atoms: _109  and  _110
REMARK   49  A    between atoms: _113  and  _115
REMARK   50  A    between atoms: _115  and  _116
REMARK   51  A    between atoms: _115  and  _118
REMARK   52  A    between atoms: _118  and  _119
REMARK   53  A    between atoms: _125  and  _127
REMARK   54  A    between atoms: _127  and  _128
REMARK   55  A    between atoms: _127  and  _130
REMARK   56  A    between atoms: _130  and  _131
REMARK   57  A    between atoms: _134  and  _136
REMARK   58  A    between atoms: _136  and  _137
REMARK   59  A    between atoms: _136  and  _139
REMARK   60  A    between atoms: _139  and  _140
REMARK   61  A    between atoms: _140  and  _141
REMARK   62  A    between atoms: _146  and  _148
REMARK   63  A    between atoms: _148  and  _149
REMARK   64  A    between atoms: _148  and  _151
REMARK   65  A    between atoms: _151  and  _152
REMARK   66  A    between atoms: _152  and  _153
REMARK   67  A    between atoms: _156  and  _158
REMARK   68  A    between atoms: _158  and  _159
REMARK   69  A    between atoms: _162  and  _164
REMARK   70  A    between atoms: _164  and  _165
REMARK   71  A    between atoms: _164  and  _167
REMARK   72  A    between atoms: _167  and  _168
REMARK   73  A    between atoms: _168  and  _169
REMARK   74  A    between atoms: _174  and  _176
REMARK   75  A    between atoms: _176  and  _177
REMARK   76  A    between atoms: _176  and  _179
REMARK   77  A    between atoms: _182  and  _184
REMARK   78  A    between atoms: _184  and  _185
REMARK   79  A    between atoms: _184  and  _187
REMARK   80  A    between atoms: _187  and  _188
REMARK   81  A    between atoms: _188  and  _189
REMARK   82  A    between atoms: _191  and  _193
REMARK   83  A    between atoms: _193  and  _194
REMARK   84  A    between atoms: _193  and  _196
REMARK   85  A    between atoms: _196  and  _197
REMARK   86  A    between atoms: _197  and  _198
REMARK   87  A    between atoms: _198  and  _199
REMARK   88  A    between atoms: _199  and  _200
REMARK   89  A    between atoms: _204  and  _206
REMARK   90  A    between atoms: _206  and  _207
REMARK   91  A    between atoms: _206  and  _209
REMARK   92  A    between atoms: _209  and  _210
REMARK   93  A    between atoms: _210  and  _211
REMARK   94  A    between atoms: _211  and  _212
REMARK   95  A    between atoms: _212  and  _213
REMARK   96  A    between atoms: _217  and  _219
REMARK   97  A    between atoms: _219  and  _220
REMARK   98  A    between atoms: _219  and  _222
REMARK   99  A    between atoms: _222  and  _223
REMARK  100  A    between atoms: _226  and  _228
REMARK  101  A    between atoms: _228  and  _229
REMARK  102  A    between atoms: _228  and  _231
REMARK  103  A    between atoms: _231  and  _232
REMARK  104  A    between atoms: _232  and  _233
REMARK  105  A    between atoms: _233  and  _234
REMARK  106  A    between atoms: _243  and  _245
REMARK  107  A    between atoms: _245  and  _246
REMARK  108  A    between atoms: _245  and  _248
REMARK  109  A    between atoms: _248  and  _249
REMARK  110  A    between atoms: _254  and  _256
REMARK  111  A    between atoms: _256  and  _257
REMARK  112  A    between atoms: _256  and  _259
REMARK  113  A    between atoms: _259  and  _260
REMARK  114  A    between atoms: _260  and  _261
REMARK  115  A    between atoms: _261  and  _262
REMARK  116  A    between atoms: _262  and  _263
REMARK  117  A    between atoms: _267  and  _269
REMARK  118  A    between atoms: _269  and  _270
REMARK  119  A    between atoms: _269  and  _272
REMARK  120  A    between atoms: _272  and  _273
REMARK  121  A    between atoms: _276  and  _278
REMARK  122  A    between atoms: _278  and  _279
REMARK  123  A    between atoms: _278  and  _281
REMARK  124  A    between atoms: _284  and  _286
REMARK  125  A    between atoms: _286  and  _287
REMARK  126  A    between atoms: _286  and  _289
REMARK  127  A    between atoms: _289  and  _290
REMARK  128  A    between atoms: _290  and  _291
REMARK  129  A    between atoms: _296  and  _298
REMARK  130  A    between atoms: _298  and  _299
REMARK  131  A    between atoms: _298  and  _301
REMARK  132  A    between atoms: _301  and  _302
REMARK  133  A    between atoms: _305  and  _307
REMARK  134  A    between atoms: _307  and  _308
REMARK  135  A    between atoms: _307  and  _310
REMARK  136  A    between atoms: _310  and  _311
REMARK  137  A    between atoms: _316  and  _317
REMARK  138  A    between atoms: _319  and  _321
REMARK  139  A    between atoms: _321  and  _322
REMARK  140  A    between atoms: _325  and  _327
REMARK  141  A    between atoms: _327  and  _328
REMARK  142  A    between atoms: _327  and  _330
REMARK  143  A    between atoms: _330  and  _331
REMARK  144  A    between atoms: _336  and  _337
REMARK  145  A    between atoms: _339  and  _341
REMARK  146  A    between atoms: _341  and  _342
REMARK  147  A    between atoms: _341  and  _344
REMARK  148  A    between atoms: _344  and  _345
REMARK  149  A    between atoms: _348  and  _350
REMARK  150  A    between atoms: _350  and  _351
REMARK  151  A    between atoms: _350  and  _353
REMARK  152  A    between atoms: _356  and  _358
REMARK  153  A    between atoms: _358  and  _359
REMARK  154  A    between atoms: _358  and  _361
REMARK  155  A    between atoms: _361  and  _362
REMARK  156  A    between atoms: _365  and  _367
REMARK  157  A    between atoms: _367  and  _368
REMARK  158  A    between atoms: _367  and  _370
REMARK  159  A    between atoms: _370  and  _371
REMARK  160  A    between atoms: _371  and  _372
REMARK  161  A    between atoms: _375  and  _377
REMARK  162  A    between atoms: _377  and  _378
REMARK  163  A    between atoms: _377  and  _380
REMARK  164  A    between atoms: _380  and  _381
REMARK  165  A    between atoms: _386  and  _387
REMARK  166  A    between atoms: _389  and  _391
REMARK  167  A    between atoms: _391  and  _392
REMARK  168  A    between atoms: _391  and  _394
REMARK  169  A    between atoms: _394  and  _395
REMARK  170  A    between atoms: _395  and  _396
REMARK  171  A    between atoms: _398  and  _400
REMARK  172  A    between atoms: _400  and  _401
REMARK  173  A    between atoms: _403  and  _405
REMARK  174  A    between atoms: _405  and  _406
REMARK  175  A    between atoms: _405  and  _408
REMARK  176  A    between atoms: _408  and  _409
REMARK  177  A    between atoms: _409  and  _410
REMARK  178  A    between atoms: _412  and  _414
REMARK  179  A    between atoms: _414  and  _415
REMARK  180  A    between atoms: _414  and  _417
REMARK  181  A    between atoms: _417  and  _418
REMARK  182  A    between atoms: _423  and  _424
REMARK  183  A    between atoms: _426  and  _428
REMARK  184  A    between atoms: _428  and  _429
REMARK  185  A    between atoms: _428  and  _431
REMARK  186  A    between atoms: _434  and  _436
REMARK  187  A    between atoms: _436  and  _437
REMARK  188  A    between atoms: _436  and  _439
REMARK  189  A    between atoms: _439  and  _440
REMARK  190  A    between atoms: _445  and  _446
REMARK  191  A    between atoms: _448  and  _450
REMARK  192  A    between atoms: _450  and  _451
REMARK  193  A    between atoms: _450  and  _453
REMARK  194  A    between atoms: _456  and  _458
REMARK  195  A    between atoms: _458  and  _459
REMARK  196  A    between atoms: _458  and  _461
REMARK  197  A    between atoms: _461  and  _462
REMARK  198  A    between atoms: _467  and  _469
REMARK  199  A    between atoms: _469  and  _470
REMARK  200  A    between atoms: _469  and  _472
REMARK  201  A    between atoms: _472  and  _473
REMARK  202  A    between atoms: _473  and  _474
REMARK  203  A    between atoms: _474  and  _475
REMARK  204  A    between atoms: _484  and  _486
REMARK  205  A    between atoms: _486  and  _487
REMARK  206  A    between atoms: _486  and  _489
REMARK  207  A    between atoms: _489  and  _490
REMARK  208  A    between atoms: _493  and  _495
REMARK  209  A    between atoms: _495  and  _496
REMARK  210  A    between atoms: _495  and  _498
REMARK  211  A    between atoms: _498  and  _499
REMARK  212  A    between atoms: _502  and  _504
REMARK  213  A    between atoms: _504  and  _505
REMARK  214  A    between atoms: _508  and  _510
REMARK  215  A    between atoms: _510  and  _511
REMARK  216  A    between atoms: _510  and  _513
REMARK  217  A    between atoms: _513  and  _514
REMARK  218  A    between atoms: _519  and  _521
REMARK  219  A    between atoms: _521  and  _522
REMARK  220  A    between atoms: _521  and  _524
REMARK  221  A    between atoms: _524  and  _525
REMARK  222  A    between atoms: _528  and  _530
REMARK  223  A    between atoms: _530  and  _531
REMARK  224  A    between atoms: _530  and  _533
REMARK  225  A    between atoms: _533  and  _534
REMARK  226  A    between atoms: _537  and  _539
REMARK  227  A    between atoms: _539  and  _540
REMARK  228  A    between atoms: _539  and  _542
REMARK  229  A    between atoms: _542  and  _543
REMARK  230  A    between atoms: _543  and  _544
REMARK  231  A    between atoms: _544  and  _545
REMARK  232  A    between atoms: _545  and  _546
REMARK  233  A    between atoms: _550  and  _552
REMARK  234  A    between atoms: _552  and  _553
REMARK  235  A    between atoms: _552  and  _555
REMARK  236  A    between atoms: _558  and  _560
REMARK  237  A    between atoms: _560  and  _561
REMARK  238  A    between atoms: _564  and  _566
REMARK  239  A    between atoms: _566  and  _567
REMARK  240  A    between atoms: _566  and  _569
REMARK  241  A    between atoms: _569  and  _570
REMARK  242  A    between atoms: _573  and  _575
REMARK  243  A    between atoms: _575  and  _576
REMARK  244  A    between atoms: _575  and  _578
REMARK  245  A    between atoms: _578  and  _579
REMARK  246  A    between atoms: _585  and  _587
REMARK  247  A    between atoms: _587  and  _588
REMARK  248  A    between atoms: _590  and  _592
REMARK  249  A    between atoms: _592  and  _593
REMARK  250  A    between atoms: _592  and  _595
REMARK  251  A    between atoms: _595  and  _596
REMARK                            x       y       z     vdW  Elec       q    Type
REMARK                         _______ _______ _______ _____ _____    ______ ____
ROOT
ATOM      1  O   HOH     1       2.813  30.083  -5.434  0.00  0.00    +0.000 OA
ENDROOT
TORSDOF 0
REMARK  Name = ../refined-set-2016/3f3t/3f3t_pocket.pdb
REMARK  251 active torsions:
REMARK  status: ('A' for Active; 'I' for Inactive)
REMARK    1  A    between atoms: _1  and  _3
REMARK    2  A    between atoms: _3  and  _4
REMARK    3  A    between atoms: _3  and  _6
REMARK    4  A    between atoms: _6  and  _7
REMARK    5  A    between atoms: _10  and  _12
REMARK    6  A    between atoms: _12  and  _13
REMARK    7  A    between atoms: _12  and  _15
REMARK    8  A    between atoms: _15  and  _16
REMARK    9  A    between atoms: _16  and  _17
REMARK   10  A    between atoms: _20  and  _22
REMARK   11  A    between atoms: _22  and  _23
REMARK   12  A    between atoms: _22  and  _25
REMARK   13  A    between atoms: _28  and  _30
REMARK   14  A    between atoms: _30  and  _31
REMARK   15  A    between atoms: _30  and  _33
REMARK   16  A    between atoms: _33  and  _34
REMARK   17  A    between atoms: _44  and  _46
REMARK   18  A    between atoms: _46  and  _47
REMARK   19  A    between atoms: _46  and  _49
REMARK   20  A    between atoms: _49  and  _50
REMARK   21  A    between atoms: _50  and  _51
REMARK   22  A    between atoms: _53  and  _55
REMARK   23  A    between atoms: _55  and  _56
REMARK   24  A    between atoms: _55  and  _58
REMARK   25  A    between atoms: _61  and  _63
REMARK   26  A    between atoms: _63  and  _64
REMARK   27  A    between atoms: _67  and  _69
REMARK   28  A    between atoms: _69  and  _70
REMARK   29  A    between atoms: _69  and  _72
REMARK   30  A    between atoms: _72  and  _73
REMARK   31  A    between atoms: _76  and  _78
REMARK   32  A    between atoms: _78  and  _79
REMARK   33  A    between atoms: _78  and  _81
REMARK   34  A    between atoms: _81  and  _82
REMARK   35  A    between atoms: _82  and  _83
REMARK   36  A    between atoms: _83  and  _84
REMARK   37  A    between atoms: _84  and  _85
REMARK   38  A    between atoms: _89  and  _91
REMARK   39  A    between atoms: _91  and  _92
REMARK   40  A    between atoms: _91  and  _94
REMARK   41  A    between atoms: _94  and  _95
REMARK   42  A    between atoms: _98  and  _100
REMARK   43  A    between atoms: _100  and  _101
REMARK   44  A    between atoms: _100  and  _103
REMARK   45  A    between atoms: _103  and  _104
REMARK   46  A    between atoms: _104  and  _105
REMARK   47  A    between atoms: _107  and  _109
REMARK   48  A    between atoms: _109  and  _110
REMARK   49  A    between atoms: _113  and  _115
REMARK   50  A    between atoms: _115  and  _116
REMARK   51  A    between atoms: _115  and  _118
REMARK   52  A    between atoms: _118  and  _119
REMARK   53  A    between atoms: _125  and  _127
REMARK   54  A    between atoms: _127  and  _128
REMARK   55  A    between atoms: _127  and  _130
REMARK   56  A    between atoms: _130  and  _131
REMARK   57  A    between atoms: _134  and  _136
REMARK   58  A    between atoms: _136  and  _137
REMARK   59  A    between atoms: _136  and  _139
REMARK   60  A    between atoms: _139  and  _140
REMARK   61  A    between atoms: _140  and  _141
REMARK   62  A    between atoms: _146  and  _148
REMARK   63  A    between atoms: _148  and  _149
REMARK   64  A    between atoms: _148  and  _151
REMARK   65  A    between atoms: _151  and  _152
REMARK   66  A    between atoms: _152  and  _153
REMARK   67  A    between atoms: _156  and  _158
REMARK   68  A    between atoms: _158  and  _159
REMARK   69  A    between atoms: _162  and  _164
REMARK   70  A    between atoms: _164  and  _165
REMARK   71  A    between atoms: _164  and  _167
REMARK   72  A    between atoms: _167  and  _168
REMARK   73  A    between atoms: _168  and  _169
REMARK   74  A    between atoms: _174  and  _176
REMARK   75  A    between atoms: _176  and  _177
REMARK   76  A    between atoms: _176  and  _179
REMARK   77  A    between atoms: _182  and  _184
REMARK   78  A    between atoms: _184  and  _185
REMARK   79  A    between atoms: _184  and  _187
REMARK   80  A    between atoms: _187  and  _188
REMARK   81  A    between atoms: _188  and  _189
REMARK   82  A    between atoms: _191  and  _193
REMARK   83  A    between atoms: _193  and  _194
REMARK   84  A    between atoms: _193  and  _196
REMARK   85  A    between atoms: _196  and  _197
REMARK   86  A    between atoms: _197  and  _198
REMARK   87  A    between atoms: _198  and  _199
REMARK   88  A    between atoms: _199  and  _200
REMARK   89  A    between atoms: _204  and  _206
REMARK   90  A    between atoms: _206  and  _207
REMARK   91  A    between atoms: _206  and  _209
REMARK   92  A    between atoms: _209  and  _210
REMARK   93  A    between atoms: _210  and  _211
REMARK   94  A    between atoms: _211  and  _212
REMARK   95  A    between atoms: _212  and  _213
REMARK   96  A    between atoms: _217  and  _219
REMARK   97  A    between atoms: _219  and  _220
REMARK   98  A    between atoms: _219  and  _222
REMARK   99  A    between atoms: _222  and  _223
REMARK  100  A    between atoms: _226  and  _228
REMARK  101  A    between atoms: _228  and  _229
REMARK  102  A    between atoms: _228  and  _231
REMARK  103  A    between atoms: _231  and  _232
REMARK  104  A    between atoms: _232  and  _233
REMARK  105  A    between atoms: _233  and  _234
REMARK  106  A    between atoms: _243  and  _245
REMARK  107  A    between atoms: _245  and  _246
REMARK  108  A    between atoms: _245  and  _248
REMARK  109  A    between atoms: _248  and  _249
REMARK  110  A    between atoms: _254  and  _256
REMARK  111  A    between atoms: _256  and  _257
REMARK  112  A    between atoms: _256  and  _259
REMARK  113  A    between atoms: _259  and  _260
REMARK  114  A    between atoms: _260  and  _261
REMARK  115  A    between atoms: _261  and  _262
REMARK  116  A    between atoms: _262  and  _263
REMARK  117  A    between atoms: _267  and  _269
REMARK  118  A    between atoms: _269  and  _270
REMARK  119  A    between atoms: _269  and  _272
REMARK  120  A    between atoms: _272  and  _273
REMARK  121  A    between atoms: _276  and  _278
REMARK  122  A    between atoms: _278  and  _279
REMARK  123  A    between atoms: _278  and  _281
REMARK  124  A    between atoms: _284  and  _286
REMARK  125  A    between atoms: _286  and  _287
REMARK  126  A    between atoms: _286  and  _289
REMARK  127  A    between atoms: _289  and  _290
REMARK  128  A    between atoms: _290  and  _291
REMARK  129  A    between atoms: _296  and  _298
REMARK  130  A    between atoms: _298  and  _299
REMARK  131  A    between atoms: _298  and  _301
REMARK  132  A    between atoms: _301  and  _302
REMARK  133  A    between atoms: _305  and  _307
REMARK  134  A    between atoms: _307  and  _308
REMARK  135  A    between atoms: _307  and  _310
REMARK  136  A    between atoms: _310  and  _311
REMARK  137  A    between atoms: _316  and  _317
REMARK  138  A    between atoms: _319  and  _321
REMARK  139  A    between atoms: _321  and  _322
REMARK  140  A    between atoms: _325  and  _327
REMARK  141  A    between atoms: _327  and  _328
REMARK  142  A    between atoms: _327  and  _330
REMARK  143  A    between atoms: _330  and  _331
REMARK  144  A    between atoms: _336  and  _337
REMARK  145  A    between atoms: _339  and  _341
REMARK  146  A    between atoms: _341  and  _342
REMARK  147  A    between atoms: _341  and  _344
REMARK  148  A    between atoms: _344  and  _345
REMARK  149  A    between atoms: _348  and  _350
REMARK  150  A    between atoms: _350  and  _351
REMARK  151  A    between atoms: _350  and  _353
REMARK  152  A    between atoms: _356  and  _358
REMARK  153  A    between atoms: _358  and  _359
REMARK  154  A    between atoms: _358  and  _361
REMARK  155  A    between atoms: _361  and  _362
REMARK  156  A    between atoms: _365  and  _367
REMARK  157  A    between atoms: _367  and  _368
REMARK  158  A    between atoms: _367  and  _370
REMARK  159  A    between atoms: _370  and  _371
REMARK  160  A    between atoms: _371  and  _372
REMARK  161  A    between atoms: _375  and  _377
REMARK  162  A    between atoms: _377  and  _378
REMARK  163  A    between atoms: _377  and  _380
REMARK  164  A    between atoms: _380  and  _381
REMARK  165  A    between atoms: _386  and  _387
REMARK  166  A    between atoms: _389  and  _391
REMARK  167  A    between atoms: _391  and  _392
REMARK  168  A    between atoms: _391  and  _394
REMARK  169  A    between atoms: _394  and  _395
REMARK  170  A    between atoms: _395  and  _396
REMARK  171  A    between atoms: _398  and  _400
REMARK  172  A    between atoms: _400  and  _401
REMARK  173  A    between atoms: _403  and  _405
REMARK  174  A    between atoms: _405  and  _406
REMARK  175  A    between atoms: _405  and  _408
REMARK  176  A    between atoms: _408  and  _409
REMARK  177  A    between atoms: _409  and  _410
REMARK  178  A    between atoms: _412  and  _414
REMARK  179  A    between atoms: _414  and  _415
REMARK  180  A    between atoms: _414  and  _417
REMARK  181  A    between atoms: _417  and  _418
REMARK  182  A    between atoms: _423  and  _424
REMARK  183  A    between atoms: _426  and  _428
REMARK  184  A    between atoms: _428  and  _429
REMARK  185  A    between atoms: _428  and  _431
REMARK  186  A    between atoms: _434  and  _436
REMARK  187  A    between atoms: _436  and  _437
REMARK  188  A    between atoms: _436  and  _439
REMARK  189  A    between atoms: _439  and  _440
REMARK  190  A    between atoms: _445  and  _446
REMARK  191  A    between atoms: _448  and  _450
REMARK  192  A    between atoms: _450  and  _451
REMARK  193  A    between atoms: _450  and  _453
REMARK  194  A    between atoms: _456  and  _458
REMARK  195  A    between atoms: _458  and  _459
REMARK  196  A    between atoms: _458  and  _461
REMARK  197  A    between atoms: _461  and  _462
REMARK  198  A    between atoms: _467  and  _469
REMARK  199  A    between atoms: _469  and  _470
REMARK  200  A    between atoms: _469  and  _472
REMARK  201  A    between atoms: _472  and  _473
REMARK  202  A    between atoms: _473  and  _474
REMARK  203  A    between atoms: _474  and  _475
REMARK  204  A    between atoms: _484  and  _486
REMARK  205  A    between atoms: _486  and  _487
REMARK  206  A    between atoms: _486  and  _489
REMARK  207  A    between atoms: _489  and  _490
REMARK  208  A    between atoms: _493  and  _495
REMARK  209  A    between atoms: _495  and  _496
REMARK  210  A    between atoms: _495  and  _498
REMARK  211  A    between atoms: _498  and  _499
REMARK  212  A    between atoms: _502  and  _504
REMARK  213  A    between atoms: _504  and  _505
REMARK  214  A    between atoms: _508  and  _510
REMARK  215  A    between atoms: _510  and  _511
REMARK  216  A    between atoms: _510  and  _513
REMARK  217  A    between atoms: _513  and  _514
REMARK  218  A    between atoms: _519  and  _521
REMARK  219  A    between atoms: _521  and  _522
REMARK  220  A    between atoms: _521  and  _524
REMARK  221  A    between atoms: _524  and  _525
REMARK  222  A    between atoms: _528  and  _530
REMARK  223  A    between atoms: _530  and  _531
REMARK  224  A    between atoms: _530  and  _533
REMARK  225  A    between atoms: _533  and  _534
REMARK  226  A    between atoms: _537  and  _539
REMARK  227  A    between atoms: _539  and  _540
REMARK  228  A    between atoms: _539  and  _542
REMARK  229  A    between atoms: _542  and  _543
REMARK  230  A    between atoms: _543  and  _544
REMARK  231  A    between atoms: _544  and  _545
REMARK  232  A    between atoms: _545  and  _546
REMARK  233  A    between atoms: _550  and  _552
REMARK  234  A    between atoms: _552  and  _553
REMARK  235  A    between atoms: _552  and  _555
REMARK  236  A    between atoms: _558  and  _560
REMARK  237  A    between atoms: _560  and  _561
REMARK  238  A    between atoms: _564  and  _566
REMARK  239  A    between atoms: _566  and  _567
REMARK  240  A    between atoms: _566  and  _569
REMARK  241  A    between atoms: _569  and  _570
REMARK  242  A    between atoms: _573  and  _575
REMARK  243  A    between atoms: _575  and  _576
REMARK  244  A    between atoms: _575  and  _578
REMARK  245  A    between atoms: _578  and  _579
REMARK  246  A    between atoms: _585  and  _587
REMARK  247  A    between atoms: _587  and  _588
REMARK  248  A    between atoms: _590  and  _592
REMARK  249  A    between atoms: _592  and  _593
REMARK  250  A    between atoms: _592  and  _595
REMARK  251  A    between atoms: _595  and  _596
REMARK                            x       y       z     vdW  Elec       q    Type
REMARK                         _______ _______ _______ _____ _____    ______ ____
ROOT
ATOM      1  O   HOH     1       2.252  36.577 -12.909  0.00  0.00    +0.000 OA
ENDROOT
TORSDOF 0
REMARK  Name = ../refined-set-2016/3f3t/3f3t_pocket.pdb
REMARK  251 active torsions:
REMARK  status: ('A' for Active; 'I' for Inactive)
REMARK    1  A    between atoms: _1  and  _3
REMARK    2  A    between atoms: _3  and  _4
REMARK    3  A    between atoms: _3  and  _6
REMARK    4  A    between atoms: _6  and  _7
REMARK    5  A    between atoms: _10  and  _12
REMARK    6  A    between atoms: _12  and  _13
REMARK    7  A    between atoms: _12  and  _15
REMARK    8  A    between atoms: _15  and  _16
REMARK    9  A    between atoms: _16  and  _17
REMARK   10  A    between atoms: _20  and  _22
REMARK   11  A    between atoms: _22  and  _23
REMARK   12  A    between atoms: _22  and  _25
REMARK   13  A    between atoms: _28  and  _30
REMARK   14  A    between atoms: _30  and  _31
REMARK   15  A    between atoms: _30  and  _33
REMARK   16  A    between atoms: _33  and  _34
REMARK   17  A    between atoms: _44  and  _46
REMARK   18  A    between atoms: _46  and  _47
REMARK   19  A    between atoms: _46  and  _49
REMARK   20  A    between atoms: _49  and  _50
REMARK   21  A    between atoms: _50  and  _51
REMARK   22  A    between atoms: _53  and  _55
REMARK   23  A    between atoms: _55  and  _56
REMARK   24  A    between atoms: _55  and  _58
REMARK   25  A    between atoms: _61  and  _63
REMARK   26  A    between atoms: _63  and  _64
REMARK   27  A    between atoms: _67  and  _69
REMARK   28  A    between atoms: _69  and  _70
REMARK   29  A    between atoms: _69  and  _72
REMARK   30  A    between atoms: _72  and  _73
REMARK   31  A    between atoms: _76  and  _78
REMARK   32  A    between atoms: _78  and  _79
REMARK   33  A    between atoms: _78  and  _81
REMARK   34  A    between atoms: _81  and  _82
REMARK   35  A    between atoms: _82  and  _83
REMARK   36  A    between atoms: _83  and  _84
REMARK   37  A    between atoms: _84  and  _85
REMARK   38  A    between atoms: _89  and  _91
REMARK   39  A    between atoms: _91  and  _92
REMARK   40  A    between atoms: _91  and  _94
REMARK   41  A    between atoms: _94  and  _95
REMARK   42  A    between atoms: _98  and  _100
REMARK   43  A    between atoms: _100  and  _101
REMARK   44  A    between atoms: _100  and  _103
REMARK   45  A    between atoms: _103  and  _104
REMARK   46  A    between atoms: _104  and  _105
REMARK   47  A    between atoms: _107  and  _109
REMARK   48  A    between atoms: _109  and  _110
REMARK   49  A    between atoms: _113  and  _115
REMARK   50  A    between atoms: _115  and  _116
REMARK   51  A    between atoms: _115  and  _118
REMARK   52  A    between atoms: _118  and  _119
REMARK   53  A    between atoms: _125  and  _127
REMARK   54  A    between atoms: _127  and  _128
REMARK   55  A    between atoms: _127  and  _130
REMARK   56  A    between atoms: _130  and  _131
REMARK   57  A    between atoms: _134  and  _136
REMARK   58  A    between atoms: _136  and  _137
REMARK   59  A    between atoms: _136  and  _139
REMARK   60  A    between atoms: _139  and  _140
REMARK   61  A    between atoms: _140  and  _141
REMARK   62  A    between atoms: _146  and  _148
REMARK   63  A    between atoms: _148  and  _149
REMARK   64  A    between atoms: _148  and  _151
REMARK   65  A    between atoms: _151  and  _152
REMARK   66  A    between atoms: _152  and  _153
REMARK   67  A    between atoms: _156  and  _158
REMARK   68  A    between atoms: _158  and  _159
REMARK   69  A    between atoms: _162  and  _164
REMARK   70  A    between atoms: _164  and  _165
REMARK   71  A    between atoms: _164  and  _167
REMARK   72  A    between atoms: _167  and  _168
REMARK   73  A    between atoms: _168  and  _169
REMARK   74  A    between atoms: _174  and  _176
REMARK   75  A    between atoms: _176  and  _177
REMARK   76  A    between atoms: _176  and  _179
REMARK   77  A    between atoms: _182  and  _184
REMARK   78  A    between atoms: _184  and  _185
REMARK   79  A    between atoms: _184  and  _187
REMARK   80  A    between atoms: _187  and  _188
REMARK   81  A    between atoms: _188  and  _189
REMARK   82  A    between atoms: _191  and  _193
REMARK   83  A    between atoms: _193  and  _194
REMARK   84  A    between atoms: _193  and  _196
REMARK   85  A    between atoms: _196  and  _197
REMARK   86  A    between atoms: _197  and  _198
REMARK   87  A    between atoms: _198  and  _199
REMARK   88  A    between atoms: _199  and  _200
REMARK   89  A    between atoms: _204  and  _206
REMARK   90  A    between atoms: _206  and  _207
REMARK   91  A    between atoms: _206  and  _209
REMARK   92  A    between atoms: _209  and  _210
REMARK   93  A    between atoms: _210  and  _211
REMARK   94  A    between atoms: _211  and  _212
REMARK   95  A    between atoms: _212  and  _213
REMARK   96  A    between atoms: _217  and  _219
REMARK   97  A    between atoms: _219  and  _220
REMARK   98  A    between atoms: _219  and  _222
REMARK   99  A    between atoms: _222  and  _223
REMARK  100  A    between atoms: _226  and  _228
REMARK  101  A    between atoms: _228  and  _229
REMARK  102  A    between atoms: _228  and  _231
REMARK  103  A    between atoms: _231  and  _232
REMARK  104  A    between atoms: _232  and  _233
REMARK  105  A    between atoms: _233  and  _234
REMARK  106  A    between atoms: _243  and  _245
REMARK  107  A    between atoms: _245  and  _246
REMARK  108  A    between atoms: _245  and  _248
REMARK  109  A    between atoms: _248  and  _249
REMARK  110  A    between atoms: _254  and  _256
REMARK  111  A    between atoms: _256  and  _257
REMARK  112  A    between atoms: _256  and  _259
REMARK  113  A    between atoms: _259  and  _260
REMARK  114  A    between atoms: _260  and  _261
REMARK  115  A    between atoms: _261  and  _262
REMARK  116  A    between atoms: _262  and  _263
REMARK  117  A    between atoms: _267  and  _269
REMARK  118  A    between atoms: _269  and  _270
REMARK  119  A    between atoms: _269  and  _272
REMARK  120  A    between atoms: _272  and  _273
REMARK  121  A    between atoms: _276  and  _278
REMARK  122  A    between atoms: _278  and  _279
REMARK  123  A    between atoms: _278  and  _281
REMARK  124  A    between atoms: _284  and  _286
REMARK  125  A    between atoms: _286  and  _287
REMARK  126  A    between atoms: _286  and  _289
REMARK  127  A    between atoms: _289  and  _290
REMARK  128  A    between atoms: _290  and  _291
REMARK  129  A    between atoms: _296  and  _298
REMARK  130  A    between atoms: _298  and  _299
REMARK  131  A    between atoms: _298  and  _301
REMARK  132  A    between atoms: _301  and  _302
REMARK  133  A    between atoms: _305  and  _307
REMARK  134  A    between atoms: _307  and  _308
REMARK  135  A    between atoms: _307  and  _310
REMARK  136  A    between atoms: _310  and  _311
REMARK  137  A    between atoms: _316  and  _317
REMARK  138  A    between atoms: _319  and  _321
REMARK  139  A    between atoms: _321  and  _322
REMARK  140  A    between atoms: _325  and  _327
REMARK  141  A    between atoms: _327  and  _328
REMARK  142  A    between atoms: _327  and  _330
REMARK  143  A    between atoms: _330  and  _331
REMARK  144  A    between atoms: _336  and  _337
REMARK  145  A    between atoms: _339  and  _341
REMARK  146  A    between atoms: _341  and  _342
REMARK  147  A    between atoms: _341  and  _344
REMARK  148  A    between atoms: _344  and  _345
REMARK  149  A    between atoms: _348  and  _350
REMARK  150  A    between atoms: _350  and  _351
REMARK  151  A    between atoms: _350  and  _353
REMARK  152  A    between atoms: _356  and  _358
REMARK  153  A    between atoms: _358  and  _359
REMARK  154  A    between atoms: _358  and  _361
REMARK  155  A    between atoms: _361  and  _362
REMARK  156  A    between atoms: _365  and  _367
REMARK  157  A    between atoms: _367  and  _368
REMARK  158  A    between atoms: _367  and  _370
REMARK  159  A    between atoms: _370  and  _371
REMARK  160  A    between atoms: _371  and  _372
REMARK  161  A    between atoms: _375  and  _377
REMARK  162  A    between atoms: _377  and  _378
REMARK  163  A    between atoms: _377  and  _380
REMARK  164  A    between atoms: _380  and  _381
REMARK  165  A    between atoms: _386  and  _387
REMARK  166  A    between atoms: _389  and  _391
REMARK  167  A    between atoms: _391  and  _392
REMARK  168  A    between atoms: _391  and  _394
REMARK  169  A    between atoms: _394  and  _395
REMARK  170  A    between atoms: _395  and  _396
REMARK  171  A    between atoms: _398  and  _400
REMARK  172  A    between atoms: _400  and  _401
REMARK  173  A    between atoms: _403  and  _405
REMARK  174  A    between atoms: _405  and  _406
REMARK  175  A    between atoms: _405  and  _408
REMARK  176  A    between atoms: _408  and  _409
REMARK  177  A    between atoms: _409  and  _410
REMARK  178  A    between atoms: _412  and  _414
REMARK  179  A    between atoms: _414  and  _415
REMARK  180  A    between atoms: _414  and  _417
REMARK  181  A    between atoms: _417  and  _418
REMARK  182  A    between atoms: _423  and  _424
REMARK  183  A    between atoms: _426  and  _428
REMARK  184  A    between atoms: _428  and  _429
REMARK  185  A    between atoms: _428  and  _431
REMARK  186  A    between atoms: _434  and  _436
REMARK  187  A    between atoms: _436  and  _437
REMARK  188  A    between atoms: _436  and  _439
REMARK  189  A    between atoms: _439  and  _440
REMARK  190  A    between atoms: _445  and  _446
REMARK  191  A    between atoms: _448  and  _450
REMARK  192  A    between atoms: _450  and  _451
REMARK  193  A    between atoms: _450  and  _453
REMARK  194  A    between atoms: _456  and  _458
REMARK  195  A    between atoms: _458  and  _459
REMARK  196  A    between atoms: _458  and  _461
REMARK  197  A    between atoms: _461  and  _462
REMARK  198  A    between atoms: _467  and  _469
REMARK  199  A    between atoms: _469  and  _470
REMARK  200  A    between atoms: _469  and  _472
REMARK  201  A    between atoms: _472  and  _473
REMARK  202  A    between atoms: _473  and  _474
REMARK  203  A    between atoms: _474  and  _475
REMARK  204  A    between atoms: _484  and  _486
REMARK  205  A    between atoms: _486  and  _487
REMARK  206  A    between atoms: _486  and  _489
REMARK  207  A    between atoms: _489  and  _490
REMARK  208  A    between atoms: _493  and  _495
REMARK  209  A    between atoms: _495  and  _496
REMARK  210  A    between atoms: _495  and  _498
REMARK  211  A    between atoms: _498  and  _499
REMARK  212  A    between atoms: _502  and  _504
REMARK  213  A    between atoms: _504  and  _505
REMARK  214  A    between atoms: _508  and  _510
REMARK  215  A    between atoms: _510  and  _511
REMARK  216  A    between atoms: _510  and  _513
REMARK  217  A    between atoms: _513  and  _514
REMARK  218  A    between atoms: _519  and  _521
REMARK  219  A    between atoms: _521  and  _522
REMARK  220  A    between atoms: _521  and  _524
REMARK  221  A    between atoms: _524  and  _525
REMARK  222  A    between atoms: _528  and  _530
REMARK  223  A    between atoms: _530  and  _531
REMARK  224  A    between atoms: _530  and  _533
REMARK  225  A    between atoms: _533  and  _534
REMARK  226  A    between atoms: _537  and  _539
REMARK  227  A    between atoms: _539  and  _540
REMARK  228  A    between atoms: _539  and  _542
REMARK  229  A    between atoms: _542  and  _543
REMARK  230  A    between atoms: _543  and  _544
REMARK  231  A    between atoms: _544  and  _545
REMARK  232  A    between atoms: _545  and  _546
REMARK  233  A    between atoms: _550  and  _552
REMARK  234  A    between atoms: _552  and  _553
REMARK  235  A    between atoms: _552  and  _555
REMARK  236  A    between atoms: _558  and  _560
REMARK  237  A    between atoms: _560  and  _561
REMARK  238  A    between atoms: _564  and  _566
REMARK  239  A    between atoms: _566  and  _567
REMARK  240  A    between atoms: _566  and  _569
REMARK  241  A    between atoms: _569  and  _570
REMARK  242  A    between atoms: _573  and  _575
REMARK  243  A    between atoms: _575  and  _576
REMARK  244  A    between atoms: _575  and  _578
REMARK  245  A    between atoms: _578  and  _579
REMARK  246  A    between atoms: _585  and  _587
REMARK  247  A    between atoms: _587  and  _588
REMARK  248  A    between atoms: _590  and  _592
REMARK  249  A    between atoms: _592  and  _593
REMARK  250  A    between atoms: _592  and  _595
REMARK  251  A    between atoms: _595  and  _596
REMARK                            x       y       z     vdW  Elec       q    Type
REMARK                         _______ _______ _______ _____ _____    ______ ____
ROOT
ATOM      1  O   HOH     1       2.393  36.399  -1.968  0.00  0.00    +0.000 OA
ENDROOT
TORSDOF 0
REMARK  Name = ../refined-set-2016/3f3t/3f3t_pocket.pdb
REMARK  251 active torsions:
REMARK  status: ('A' for Active; 'I' for Inactive)
REMARK    1  A    between atoms: _1  and  _3
REMARK    2  A    between atoms: _3  and  _4
REMARK    3  A    between atoms: _3  and  _6
REMARK    4  A    between atoms: _6  and  _7
REMARK    5  A    between atoms: _10  and  _12
REMARK    6  A    between atoms: _12  and  _13
REMARK    7  A    between atoms: _12  and  _15
REMARK    8  A    between atoms: _15  and  _16
REMARK    9  A    between atoms: _16  and  _17
REMARK   10  A    between atoms: _20  and  _22
REMARK   11  A    between atoms: _22  and  _23
REMARK   12  A    between atoms: _22  and  _25
REMARK   13  A    between atoms: _28  and  _30
REMARK   14  A    between atoms: _30  and  _31
REMARK   15  A    between atoms: _30  and  _33
REMARK   16  A    between atoms: _33  and  _34
REMARK   17  A    between atoms: _44  and  _46
REMARK   18  A    between atoms: _46  and  _47
REMARK   19  A    between atoms: _46  and  _49
REMARK   20  A    between atoms: _49  and  _50
REMARK   21  A    between atoms: _50  and  _51
REMARK   22  A    between atoms: _53  and  _55
REMARK   23  A    between atoms: _55  and  _56
REMARK   24  A    between atoms: _55  and  _58
REMARK   25  A    between atoms: _61  and  _63
REMARK   26  A    between atoms: _63  and  _64
REMARK   27  A    between atoms: _67  and  _69
REMARK   28  A    between atoms: _69  and  _70
REMARK   29  A    between atoms: _69  and  _72
REMARK   30  A    between atoms: _72  and  _73
REMARK   31  A    between atoms: _76  and  _78
REMARK   32  A    between atoms: _78  and  _79
REMARK   33  A    between atoms: _78  and  _81
REMARK   34  A    between atoms: _81  and  _82
REMARK   35  A    between atoms: _82  and  _83
REMARK   36  A    between atoms: _83  and  _84
REMARK   37  A    between atoms: _84  and  _85
REMARK   38  A    between atoms: _89  and  _91
REMARK   39  A    between atoms: _91  and  _92
REMARK   40  A    between atoms: _91  and  _94
REMARK   41  A    between atoms: _94  and  _95
REMARK   42  A    between atoms: _98  and  _100
REMARK   43  A    between atoms: _100  and  _101
REMARK   44  A    between atoms: _100  and  _103
REMARK   45  A    between atoms: _103  and  _104
REMARK   46  A    between atoms: _104  and  _105
REMARK   47  A    between atoms: _107  and  _109
REMARK   48  A    between atoms: _109  and  _110
REMARK   49  A    between atoms: _113  and  _115
REMARK   50  A    between atoms: _115  and  _116
REMARK   51  A    between atoms: _115  and  _118
REMARK   52  A    between atoms: _118  and  _119
REMARK   53  A    between atoms: _125  and  _127
REMARK   54  A    between atoms: _127  and  _128
REMARK   55  A    between atoms: _127  and  _130
REMARK   56  A    between atoms: _130  and  _131
REMARK   57  A    between atoms: _134  and  _136
REMARK   58  A    between atoms: _136  and  _137
REMARK   59  A    between atoms: _136  and  _139
REMARK   60  A    between atoms: _139  and  _140
REMARK   61  A    between atoms: _140  and  _141
REMARK   62  A    between atoms: _146  and  _148
REMARK   63  A    between atoms: _148  and  _149
REMARK   64  A    between atoms: _148  and  _151
REMARK   65  A    between atoms: _151  and  _152
REMARK   66  A    between atoms: _152  and  _153
REMARK   67  A    between atoms: _156  and  _158
REMARK   68  A    between atoms: _158  and  _159
REMARK   69  A    between atoms: _162  and  _164
REMARK   70  A    between atoms: _164  and  _165
REMARK   71  A    between atoms: _164  and  _167
REMARK   72  A    between atoms: _167  and  _168
REMARK   73  A    between atoms: _168  and  _169
REMARK   74  A    between atoms: _174  and  _176
REMARK   75  A    between atoms: _176  and  _177
REMARK   76  A    between atoms: _176  and  _179
REMARK   77  A    between atoms: _182  and  _184
REMARK   78  A    between atoms: _184  and  _185
REMARK   79  A    between atoms: _184  and  _187
REMARK   80  A    between atoms: _187  and  _188
REMARK   81  A    between atoms: _188  and  _189
REMARK   82  A    between atoms: _191  and  _193
REMARK   83  A    between atoms: _193  and  _194
REMARK   84  A    between atoms: _193  and  _196
REMARK   85  A    between atoms: _196  and  _197
REMARK   86  A    between atoms: _197  and  _198
REMARK   87  A    between atoms: _198  and  _199
REMARK   88  A    between atoms: _199  and  _200
REMARK   89  A    between atoms: _204  and  _206
REMARK   90  A    between atoms: _206  and  _207
REMARK   91  A    between atoms: _206  and  _209
REMARK   92  A    between atoms: _209  and  _210
REMARK   93  A    between atoms: _210  and  _211
REMARK   94  A    between atoms: _211  and  _212
REMARK   95  A    between atoms: _212  and  _213
REMARK   96  A    between atoms: _217  and  _219
REMARK   97  A    between atoms: _219  and  _220
REMARK   98  A    between atoms: _219  and  _222
REMARK   99  A    between atoms: _222  and  _223
REMARK  100  A    between atoms: _226  and  _228
REMARK  101  A    between atoms: _228  and  _229
REMARK  102  A    between atoms: _228  and  _231
REMARK  103  A    between atoms: _231  and  _232
REMARK  104  A    between atoms: _232  and  _233
REMARK  105  A    between atoms: _233  and  _234
REMARK  106  A    between atoms: _243  and  _245
REMARK  107  A    between atoms: _245  and  _246
REMARK  108  A    between atoms: _245  and  _248
REMARK  109  A    between atoms: _248  and  _249
REMARK  110  A    between atoms: _254  and  _256
REMARK  111  A    between atoms: _256  and  _257
REMARK  112  A    between atoms: _256  and  _259
REMARK  113  A    between atoms: _259  and  _260
REMARK  114  A    between atoms: _260  and  _261
REMARK  115  A    between atoms: _261  and  _262
REMARK  116  A    between atoms: _262  and  _263
REMARK  117  A    between atoms: _267  and  _269
REMARK  118  A    between atoms: _269  and  _270
REMARK  119  A    between atoms: _269  and  _272
REMARK  120  A    between atoms: _272  and  _273
REMARK  121  A    between atoms: _276  and  _278
REMARK  122  A    between atoms: _278  and  _279
REMARK  123  A    between atoms: _278  and  _281
REMARK  124  A    between atoms: _284  and  _286
REMARK  125  A    between atoms: _286  and  _287
REMARK  126  A    between atoms: _286  and  _289
REMARK  127  A    between atoms: _289  and  _290
REMARK  128  A    between atoms: _290  and  _291
REMARK  129  A    between atoms: _296  and  _298
REMARK  130  A    between atoms: _298  and  _299
REMARK  131  A    between atoms: _298  and  _301
REMARK  132  A    between atoms: _301  and  _302
REMARK  133  A    between atoms: _305  and  _307
REMARK  134  A    between atoms: _307  and  _308
REMARK  135  A    between atoms: _307  and  _310
REMARK  136  A    between atoms: _310  and  _311
REMARK  137  A    between atoms: _316  and  _317
REMARK  138  A    between atoms: _319  and  _321
REMARK  139  A    between atoms: _321  and  _322
REMARK  140  A    between atoms: _325  and  _327
REMARK  141  A    between atoms: _327  and  _328
REMARK  142  A    between atoms: _327  and  _330
REMARK  143  A    between atoms: _330  and  _331
REMARK  144  A    between atoms: _336  and  _337
REMARK  145  A    between atoms: _339  and  _341
REMARK  146  A    between atoms: _341  and  _342
REMARK  147  A    between atoms: _341  and  _344
REMARK  148  A    between atoms: _344  and  _345
REMARK  149  A    between atoms: _348  and  _350
REMARK  150  A    between atoms: _350  and  _351
REMARK  151  A    between atoms: _350  and  _353
REMARK  152  A    between atoms: _356  and  _358
REMARK  153  A    between atoms: _358  and  _359
REMARK  154  A    between atoms: _358  and  _361
REMARK  155  A    between atoms: _361  and  _362
REMARK  156  A    between atoms: _365  and  _367
REMARK  157  A    between atoms: _367  and  _368
REMARK  158  A    between atoms: _367  and  _370
REMARK  159  A    between atoms: _370  and  _371
REMARK  160  A    between atoms: _371  and  _372
REMARK  161  A    between atoms: _375  and  _377
REMARK  162  A    between atoms: _377  and  _378
REMARK  163  A    between atoms: _377  and  _380
REMARK  164  A    between atoms: _380  and  _381
REMARK  165  A    between atoms: _386  and  _387
REMARK  166  A    between atoms: _389  and  _391
REMARK  167  A    between atoms: _391  and  _392
REMARK  168  A    between atoms: _391  and  _394
REMARK  169  A    between atoms: _394  and  _395
REMARK  170  A    between atoms: _395  and  _396
REMARK  171  A    between atoms: _398  and  _400
REMARK  172  A    between atoms: _400  and  _401
REMARK  173  A    between atoms: _403  and  _405
REMARK  174  A    between atoms: _405  and  _406
REMARK  175  A    between atoms: _405  and  _408
REMARK  176  A    between atoms: _408  and  _409
REMARK  177  A    between atoms: _409  and  _410
REMARK  178  A    between atoms: _412  and  _414
REMARK  179  A    between atoms: _414  and  _415
REMARK  180  A    between atoms: _414  and  _417
REMARK  181  A    between atoms: _417  and  _418
REMARK  182  A    between atoms: _423  and  _424
REMARK  183  A    between atoms: _426  and  _428
REMARK  184  A    between atoms: _428  and  _429
REMARK  185  A    between atoms: _428  and  _431
REMARK  186  A    between atoms: _434  and  _436
REMARK  187  A    between atoms: _436  and  _437
REMARK  188  A    between atoms: _436  and  _439
REMARK  189  A    between atoms: _439  and  _440
REMARK  190  A    between atoms: _445  and  _446
REMARK  191  A    between atoms: _448  and  _450
REMARK  192  A    between atoms: _450  and  _451
REMARK  193  A    between atoms: _450  and  _453
REMARK  194  A    between atoms: _456  and  _458
REMARK  195  A    between atoms: _458  and  _459
REMARK  196  A    between atoms: _458  and  _461
REMARK  197  A    between atoms: _461  and  _462
REMARK  198  A    between atoms: _467  and  _469
REMARK  199  A    between atoms: _469  and  _470
REMARK  200  A    between atoms: _469  and  _472
REMARK  201  A    between atoms: _472  and  _473
REMARK  202  A    between atoms: _473  and  _474
REMARK  203  A    between atoms: _474  and  _475
REMARK  204  A    between atoms: _484  and  _486
REMARK  205  A    between atoms: _486  and  _487
REMARK  206  A    between atoms: _486  and  _489
REMARK  207  A    between atoms: _489  and  _490
REMARK  208  A    between atoms: _493  and  _495
REMARK  209  A    between atoms: _495  and  _496
REMARK  210  A    between atoms: _495  and  _498
REMARK  211  A    between atoms: _498  and  _499
REMARK  212  A    between atoms: _502  and  _504
REMARK  213  A    between atoms: _504  and  _505
REMARK  214  A    between atoms: _508  and  _510
REMARK  215  A    between atoms: _510  and  _511
REMARK  216  A    between atoms: _510  and  _513
REMARK  217  A    between atoms: _513  and  _514
REMARK  218  A    between atoms: _519  and  _521
REMARK  219  A    between atoms: _521  and  _522
REMARK  220  A    between atoms: _521  and  _524
REMARK  221  A    between atoms: _524  and  _525
REMARK  222  A    between atoms: _528  and  _530
REMARK  223  A    between atoms: _530  and  _531
REMARK  224  A    between atoms: _530  and  _533
REMARK  225  A    between atoms: _533  and  _534
REMARK  226  A    between atoms: _537  and  _539
REMARK  227  A    between atoms: _539  and  _540
REMARK  228  A    between atoms: _539  and  _542
REMARK  229  A    between atoms: _542  and  _543
REMARK  230  A    between atoms: _543  and  _544
REMARK  231  A    between atoms: _544  and  _545
REMARK  232  A    between atoms: _545  and  _546
REMARK  233  A    between atoms: _550  and  _552
REMARK  234  A    between atoms: _552  and  _553
REMARK  235  A    between atoms: _552  and  _555
REMARK  236  A    between atoms: _558  and  _560
REMARK  237  A    between atoms: _560  and  _561
REMARK  238  A    between atoms: _564  and  _566
REMARK  239  A    between atoms: _566  and  _567
REMARK  240  A    between atoms: _566  and  _569
REMARK  241  A    between atoms: _569  and  _570
REMARK  242  A    between atoms: _573  and  _575
REMARK  243  A    between atoms: _575  and  _576
REMARK  244  A    between atoms: _575  and  _578
REMARK  245  A    between atoms: _578  and  _579
REMARK  246  A    between atoms: _585  and  _587
REMARK  247  A    between atoms: _587  and  _588
REMARK  248  A    between atoms: _590  and  _592
REMARK  249  A    between atoms: _592  and  _593
REMARK  250  A    between atoms: _592  and  _595
REMARK  251  A    between atoms: _595  and  _596
REMARK                            x       y       z     vdW  Elec       q    Type
REMARK                         _______ _______ _______ _____ _____    ______ ____
ROOT
ATOM      1  O   HOH     1       1.115  37.230  -8.933  0.00  0.00    +0.000 OA
ENDROOT
TORSDOF 0
REMARK  Name = ../refined-set-2016/3f3t/3f3t_pocket.pdb
REMARK  251 active torsions:
REMARK  status: ('A' for Active; 'I' for Inactive)
REMARK    1  A    between atoms: _1  and  _3
REMARK    2  A    between atoms: _3  and  _4
REMARK    3  A    between atoms: _3  and  _6
REMARK    4  A    between atoms: _6  and  _7
REMARK    5  A    between atoms: _10  and  _12
REMARK    6  A    between atoms: _12  and  _13
REMARK    7  A    between atoms: _12  and  _15
REMARK    8  A    between atoms: _15  and  _16
REMARK    9  A    between atoms: _16  and  _17
REMARK   10  A    between atoms: _20  and  _22
REMARK   11  A    between atoms: _22  and  _23
REMARK   12  A    between atoms: _22  and  _25
REMARK   13  A    between atoms: _28  and  _30
REMARK   14  A    between atoms: _30  and  _31
REMARK   15  A    between atoms: _30  and  _33
REMARK   16  A    between atoms: _33  and  _34
REMARK   17  A    between atoms: _44  and  _46
REMARK   18  A    between atoms: _46  and  _47
REMARK   19  A    between atoms: _46  and  _49
REMARK   20  A    between atoms: _49  and  _50
REMARK   21  A    between atoms: _50  and  _51
REMARK   22  A    between atoms: _53  and  _55
REMARK   23  A    between atoms: _55  and  _56
REMARK   24  A    between atoms: _55  and  _58
REMARK   25  A    between atoms: _61  and  _63
REMARK   26  A    between atoms: _63  and  _64
REMARK   27  A    between atoms: _67  and  _69
REMARK   28  A    between atoms: _69  and  _70
REMARK   29  A    between atoms: _69  and  _72
REMARK   30  A    between atoms: _72  and  _73
REMARK   31  A    between atoms: _76  and  _78
REMARK   32  A    between atoms: _78  and  _79
REMARK   33  A    between atoms: _78  and  _81
REMARK   34  A    between atoms: _81  and  _82
REMARK   35  A    between atoms: _82  and  _83
REMARK   36  A    between atoms: _83  and  _84
REMARK   37  A    between atoms: _84  and  _85
REMARK   38  A    between atoms: _89  and  _91
REMARK   39  A    between atoms: _91  and  _92
REMARK   40  A    between atoms: _91  and  _94
REMARK   41  A    between atoms: _94  and  _95
REMARK   42  A    between atoms: _98  and  _100
REMARK   43  A    between atoms: _100  and  _101
REMARK   44  A    between atoms: _100  and  _103
REMARK   45  A    between atoms: _103  and  _104
REMARK   46  A    between atoms: _104  and  _105
REMARK   47  A    between atoms: _107  and  _109
REMARK   48  A    between atoms: _109  and  _110
REMARK   49  A    between atoms: _113  and  _115
REMARK   50  A    between atoms: _115  and  _116
REMARK   51  A    between atoms: _115  and  _118
REMARK   52  A    between atoms: _118  and  _119
REMARK   53  A    between atoms: _125  and  _127
REMARK   54  A    between atoms: _127  and  _128
REMARK   55  A    between atoms: _127  and  _130
REMARK   56  A    between atoms: _130  and  _131
REMARK   57  A    between atoms: _134  and  _136
REMARK   58  A    between atoms: _136  and  _137
REMARK   59  A    between atoms: _136  and  _139
REMARK   60  A    between atoms: _139  and  _140
REMARK   61  A    between atoms: _140  and  _141
REMARK   62  A    between atoms: _146  and  _148
REMARK   63  A    between atoms: _148  and  _149
REMARK   64  A    between atoms: _148  and  _151
REMARK   65  A    between atoms: _151  and  _152
REMARK   66  A    between atoms: _152  and  _153
REMARK   67  A    between atoms: _156  and  _158
REMARK   68  A    between atoms: _158  and  _159
REMARK   69  A    between atoms: _162  and  _164
REMARK   70  A    between atoms: _164  and  _165
REMARK   71  A    between atoms: _164  and  _167
REMARK   72  A    between atoms: _167  and  _168
REMARK   73  A    between atoms: _168  and  _169
REMARK   74  A    between atoms: _174  and  _176
REMARK   75  A    between atoms: _176  and  _177
REMARK   76  A    between atoms: _176  and  _179
REMARK   77  A    between atoms: _182  and  _184
REMARK   78  A    between atoms: _184  and  _185
REMARK   79  A    between atoms: _184  and  _187
REMARK   80  A    between atoms: _187  and  _188
REMARK   81  A    between atoms: _188  and  _189
REMARK   82  A    between atoms: _191  and  _193
REMARK   83  A    between atoms: _193  and  _194
REMARK   84  A    between atoms: _193  and  _196
REMARK   85  A    between atoms: _196  and  _197
REMARK   86  A    between atoms: _197  and  _198
REMARK   87  A    between atoms: _198  and  _199
REMARK   88  A    between atoms: _199  and  _200
REMARK   89  A    between atoms: _204  and  _206
REMARK   90  A    between atoms: _206  and  _207
REMARK   91  A    between atoms: _206  and  _209
REMARK   92  A    between atoms: _209  and  _210
REMARK   93  A    between atoms: _210  and  _211
REMARK   94  A    between atoms: _211  and  _212
REMARK   95  A    between atoms: _212  and  _213
REMARK   96  A    between atoms: _217  and  _219
REMARK   97  A    between atoms: _219  and  _220
REMARK   98  A    between atoms: _219  and  _222
REMARK   99  A    between atoms: _222  and  _223
REMARK  100  A    between atoms: _226  and  _228
REMARK  101  A    between atoms: _228  and  _229
REMARK  102  A    between atoms: _228  and  _231
REMARK  103  A    between atoms: _231  and  _232
REMARK  104  A    between atoms: _232  and  _233
REMARK  105  A    between atoms: _233  and  _234
REMARK  106  A    between atoms: _243  and  _245
REMARK  107  A    between atoms: _245  and  _246
REMARK  108  A    between atoms: _245  and  _248
REMARK  109  A    between atoms: _248  and  _249
REMARK  110  A    between atoms: _254  and  _256
REMARK  111  A    between atoms: _256  and  _257
REMARK  112  A    between atoms: _256  and  _259
REMARK  113  A    between atoms: _259  and  _260
REMARK  114  A    between atoms: _260  and  _261
REMARK  115  A    between atoms: _261  and  _262
REMARK  116  A    between atoms: _262  and  _263
REMARK  117  A    between atoms: _267  and  _269
REMARK  118  A    between atoms: _269  and  _270
REMARK  119  A    between atoms: _269  and  _272
REMARK  120  A    between atoms: _272  and  _273
REMARK  121  A    between atoms: _276  and  _278
REMARK  122  A    between atoms: _278  and  _279
REMARK  123  A    between atoms: _278  and  _281
REMARK  124  A    between atoms: _284  and  _286
REMARK  125  A    between atoms: _286  and  _287
REMARK  126  A    between atoms: _286  and  _289
REMARK  127  A    between atoms: _289  and  _290
REMARK  128  A    between atoms: _290  and  _291
REMARK  129  A    between atoms: _296  and  _298
REMARK  130  A    between atoms: _298  and  _299
REMARK  131  A    between atoms: _298  and  _301
REMARK  132  A    between atoms: _301  and  _302
REMARK  133  A    between atoms: _305  and  _307
REMARK  134  A    between atoms: _307  and  _308
REMARK  135  A    between atoms: _307  and  _310
REMARK  136  A    between atoms: _310  and  _311
REMARK  137  A    between atoms: _316  and  _317
REMARK  138  A    between atoms: _319  and  _321
REMARK  139  A    between atoms: _321  and  _322
REMARK  140  A    between atoms: _325  and  _327
REMARK  141  A    between atoms: _327  and  _328
REMARK  142  A    between atoms: _327  and  _330
REMARK  143  A    between atoms: _330  and  _331
REMARK  144  A    between atoms: _336  and  _337
REMARK  145  A    between atoms: _339  and  _341
REMARK  146  A    between atoms: _341  and  _342
REMARK  147  A    between atoms: _341  and  _344
REMARK  148  A    between atoms: _344  and  _345
REMARK  149  A    between atoms: _348  and  _350
REMARK  150  A    between atoms: _350  and  _351
REMARK  151  A    between atoms: _350  and  _353
REMARK  152  A    between atoms: _356  and  _358
REMARK  153  A    between atoms: _358  and  _359
REMARK  154  A    between atoms: _358  and  _361
REMARK  155  A    between atoms: _361  and  _362
REMARK  156  A    between atoms: _365  and  _367
REMARK  157  A    between atoms: _367  and  _368
REMARK  158  A    between atoms: _367  and  _370
REMARK  159  A    between atoms: _370  and  _371
REMARK  160  A    between atoms: _371  and  _372
REMARK  161  A    between atoms: _375  and  _377
REMARK  162  A    between atoms: _377  and  _378
REMARK  163  A    between atoms: _377  and  _380
REMARK  164  A    between atoms: _380  and  _381
REMARK  165  A    between atoms: _386  and  _387
REMARK  166  A    between atoms: _389  and  _391
REMARK  167  A    between atoms: _391  and  _392
REMARK  168  A    between atoms: _391  and  _394
REMARK  169  A    between atoms: _394  and  _395
REMARK  170  A    between atoms: _395  and  _396
REMARK  171  A    between atoms: _398  and  _400
REMARK  172  A    between atoms: _400  and  _401
REMARK  173  A    between atoms: _403  and  _405
REMARK  174  A    between atoms: _405  and  _406
REMARK  175  A    between atoms: _405  and  _408
REMARK  176  A    between atoms: _408  and  _409
REMARK  177  A    between atoms: _409  and  _410
REMARK  178  A    between atoms: _412  and  _414
REMARK  179  A    between atoms: _414  and  _415
REMARK  180  A    between atoms: _414  and  _417
REMARK  181  A    between atoms: _417  and  _418
REMARK  182  A    between atoms: _423  and  _424
REMARK  183  A    between atoms: _426  and  _428
REMARK  184  A    between atoms: _428  and  _429
REMARK  185  A    between atoms: _428  and  _431
REMARK  186  A    between atoms: _434  and  _436
REMARK  187  A    between atoms: _436  and  _437
REMARK  188  A    between atoms: _436  and  _439
REMARK  189  A    between atoms: _439  and  _440
REMARK  190  A    between atoms: _445  and  _446
REMARK  191  A    between atoms: _448  and  _450
REMARK  192  A    between atoms: _450  and  _451
REMARK  193  A    between atoms: _450  and  _453
REMARK  194  A    between atoms: _456  and  _458
REMARK  195  A    between atoms: _458  and  _459
REMARK  196  A    between atoms: _458  and  _461
REMARK  197  A    between atoms: _461  and  _462
REMARK  198  A    between atoms: _467  and  _469
REMARK  199  A    between atoms: _469  and  _470
REMARK  200  A    between atoms: _469  and  _472
REMARK  201  A    between atoms: _472  and  _473
REMARK  202  A    between atoms: _473  and  _474
REMARK  203  A    between atoms: _474  and  _475
REMARK  204  A    between atoms: _484  and  _486
REMARK  205  A    between atoms: _486  and  _487
REMARK  206  A    between atoms: _486  and  _489
REMARK  207  A    between atoms: _489  and  _490
REMARK  208  A    between atoms: _493  and  _495
REMARK  209  A    between atoms: _495  and  _496
REMARK  210  A    between atoms: _495  and  _498
REMARK  211  A    between atoms: _498  and  _499
REMARK  212  A    between atoms: _502  and  _504
REMARK  213  A    between atoms: _504  and  _505
REMARK  214  A    between atoms: _508  and  _510
REMARK  215  A    between atoms: _510  and  _511
REMARK  216  A    between atoms: _510  and  _513
REMARK  217  A    between atoms: _513  and  _514
REMARK  218  A    between atoms: _519  and  _521
REMARK  219  A    between atoms: _521  and  _522
REMARK  220  A    between atoms: _521  and  _524
REMARK  221  A    between atoms: _524  and  _525
REMARK  222  A    between atoms: _528  and  _530
REMARK  223  A    between atoms: _530  and  _531
REMARK  224  A    between atoms: _530  and  _533
REMARK  225  A    between atoms: _533  and  _534
REMARK  226  A    between atoms: _537  and  _539
REMARK  227  A    between atoms: _539  and  _540
REMARK  228  A    between atoms: _539  and  _542
REMARK  229  A    between atoms: _542  and  _543
REMARK  230  A    between atoms: _543  and  _544
REMARK  231  A    between atoms: _544  and  _545
REMARK  232  A    between atoms: _545  and  _546
REMARK  233  A    between atoms: _550  and  _552
REMARK  234  A    between atoms: _552  and  _553
REMARK  235  A    between atoms: _552  and  _555
REMARK  236  A    between atoms: _558  and  _560
REMARK  237  A    between atoms: _560  and  _561
REMARK  238  A    between atoms: _564  and  _566
REMARK  239  A    between atoms: _566  and  _567
REMARK  240  A    between atoms: _566  and  _569
REMARK  241  A    between atoms: _569  and  _570
REMARK  242  A    between atoms: _573  and  _575
REMARK  243  A    between atoms: _575  and  _576
REMARK  244  A    between atoms: _575  and  _578
REMARK  245  A    between atoms: _578  and  _579
REMARK  246  A    between atoms: _585  and  _587
REMARK  247  A    between atoms: _587  and  _588
REMARK  248  A    between atoms: _590  and  _592
REMARK  249  A    between atoms: _592  and  _593
REMARK  250  A    between atoms: _592  and  _595
REMARK  251  A    between atoms: _595  and  _596
REMARK                            x       y       z     vdW  Elec       q    Type
REMARK                         _______ _______ _______ _____ _____    ______ ____
ROOT
ATOM      1  O   HOH     1       4.359  36.229 -11.776  0.00  0.00    +0.000 OA
ENDROOT
TORSDOF 0
