REMARK  Name = ../refined-set-2016/3juk/3juk_pocket.pdb
REMARK  272 active torsions:
REMARK  status: ('A' for Active; 'I' for Inactive)
REMARK    1  A    between atoms: _1  and  _3
REMARK    2  A    between atoms: _3  and  _4
REMARK    3  A    between atoms: _3  and  _6
REMARK    4  A    between atoms: _6  and  _7
REMARK    5  A    between atoms: _14  and  _15
REMARK    6  A    between atoms: _20  and  _22
REMARK    7  A    between atoms: _22  and  _23
REMARK    8  A    between atoms: _26  and  _28
REMARK    9  A    between atoms: _28  and  _29
REMARK   10  A    between atoms: _32  and  _34
REMARK   11  A    between atoms: _34  and  _35
REMARK   12  A    between atoms: _37  and  _39
REMARK   13  A    between atoms: _39  and  _40
REMARK   14  A    between atoms: _39  and  _42
REMARK   15  A    between atoms: _42  and  _43
REMARK   16  A    between atoms: _48  and  _49
REMARK   17  A    between atoms: _51  and  _53
REMARK   18  A    between atoms: _53  and  _54
REMARK   19  A    between atoms: _56  and  _58
REMARK   20  A    between atoms: _58  and  _59
REMARK   21  A    between atoms: _58  and  _61
REMARK   22  A    between atoms: _61  and  _62
REMARK   23  A    between atoms: _65  and  _67
REMARK   24  A    between atoms: _67  and  _68
REMARK   25  A    between atoms: _67  and  _70
REMARK   26  A    between atoms: _70  and  _71
REMARK   27  A    between atoms: _71  and  _72
REMARK   28  A    between atoms: _72  and  _73
REMARK   29  A    between atoms: _83  and  _84
REMARK   30  A    between atoms: _89  and  _91
REMARK   31  A    between atoms: _91  and  _92
REMARK   32  A    between atoms: _91  and  _94
REMARK   33  A    between atoms: _94  and  _95
REMARK   34  A    between atoms: _95  and  _96
REMARK   35  A    between atoms: _96  and  _97
REMARK   36  A    between atoms: _97  and  _98
REMARK   37  A    between atoms: _102  and  _104
REMARK   38  A    between atoms: _104  and  _105
REMARK   39  A    between atoms: _104  and  _107
REMARK   40  A    between atoms: _107  and  _108
REMARK   41  A    between atoms: _108  and  _109
REMARK   42  A    between atoms: _112  and  _114
REMARK   43  A    between atoms: _114  and  _115
REMARK   44  A    between atoms: _114  and  _117
REMARK   45  A    between atoms: _117  and  _118
REMARK   46  A    between atoms: _121  and  _123
REMARK   47  A    between atoms: _123  and  _124
REMARK   48  A    between atoms: _123  and  _126
REMARK   49  A    between atoms: _129  and  _131
REMARK   50  A    between atoms: _131  and  _132
REMARK   51  A    between atoms: _131  and  _134
REMARK   52  A    between atoms: _134  and  _135
REMARK   53  A    between atoms: _138  and  _140
REMARK   54  A    between atoms: _140  and  _141
REMARK   55  A    between atoms: _143  and  _145
REMARK   56  A    between atoms: _145  and  _146
REMARK   57  A    between atoms: _145  and  _148
REMARK   58  A    between atoms: _148  and  _149
REMARK   59  A    between atoms: _149  and  _150
REMARK   60  A    between atoms: _155  and  _157
REMARK   61  A    between atoms: _157  and  _158
REMARK   62  A    between atoms: _157  and  _160
REMARK   63  A    between atoms: _160  and  _161
REMARK   64  A    between atoms: _161  and  _162
REMARK   65  A    between atoms: _167  and  _169
REMARK   66  A    between atoms: _169  and  _170
REMARK   67  A    between atoms: _169  and  _172
REMARK   68  A    between atoms: _172  and  _173
REMARK   69  A    between atoms: _173  and  _174
REMARK   70  A    between atoms: _176  and  _178
REMARK   71  A    between atoms: _178  and  _179
REMARK   72  A    between atoms: _178  and  _181
REMARK   73  A    between atoms: _181  and  _182
REMARK   74  A    between atoms: _182  and  _183
REMARK   75  A    between atoms: _183  and  _184
REMARK   76  A    between atoms: _184  and  _185
REMARK   77  A    between atoms: _189  and  _191
REMARK   78  A    between atoms: _191  and  _192
REMARK   79  A    between atoms: _194  and  _196
REMARK   80  A    between atoms: _196  and  _197
REMARK   81  A    between atoms: _196  and  _199
REMARK   82  A    between atoms: _199  and  _200
REMARK   83  A    between atoms: _203  and  _205
REMARK   84  A    between atoms: _205  and  _206
REMARK   85  A    between atoms: _208  and  _210
REMARK   86  A    between atoms: _210  and  _211
REMARK   87  A    between atoms: _210  and  _213
REMARK   88  A    between atoms: _213  and  _214
REMARK   89  A    between atoms: _219  and  _221
REMARK   90  A    between atoms: _221  and  _222
REMARK   91  A    between atoms: _225  and  _227
REMARK   92  A    between atoms: _227  and  _228
REMARK   93  A    between atoms: _227  and  _230
REMARK   94  A    between atoms: _230  and  _231
REMARK   95  A    between atoms: _234  and  _236
REMARK   96  A    between atoms: _236  and  _237
REMARK   97  A    between atoms: _236  and  _239
REMARK   98  A    between atoms: _239  and  _240
REMARK   99  A    between atoms: _243  and  _245
REMARK  100  A    between atoms: _245  and  _246
REMARK  101  A    between atoms: _245  and  _248
REMARK  102  A    between atoms: _251  and  _253
REMARK  103  A    between atoms: _253  and  _254
REMARK  104  A    between atoms: _253  and  _256
REMARK  105  A    between atoms: _256  and  _257
REMARK  106  A    between atoms: _260  and  _262
REMARK  107  A    between atoms: _262  and  _263
REMARK  108  A    between atoms: _262  and  _265
REMARK  109  A    between atoms: _265  and  _266
REMARK  110  A    between atoms: _269  and  _271
REMARK  111  A    between atoms: _271  and  _272
REMARK  112  A    between atoms: _275  and  _277
REMARK  113  A    between atoms: _277  and  _278
REMARK  114  A    between atoms: _277  and  _280
REMARK  115  A    between atoms: _280  and  _281
REMARK  116  A    between atoms: _281  and  _282
REMARK  117  A    between atoms: _282  and  MG_647
REMARK  118  A    between atoms: _284  and  _286
REMARK  119  A    between atoms: _286  and  _287
REMARK  120  A    between atoms: _286  and  _289
REMARK  121  A    between atoms: _289  and  _290
REMARK  122  A    between atoms: _293  and  _295
REMARK  123  A    between atoms: _295  and  _296
REMARK  124  A    between atoms: _295  and  _298
REMARK  125  A    between atoms: _298  and  _299
REMARK  126  A    between atoms: _302  and  _304
REMARK  127  A    between atoms: _304  and  _305
REMARK  128  A    between atoms: _304  and  _307
REMARK  129  A    between atoms: _310  and  _312
REMARK  130  A    between atoms: _312  and  _313
REMARK  131  A    between atoms: _316  and  _318
REMARK  132  A    between atoms: _318  and  _319
REMARK  133  A    between atoms: _318  and  _321
REMARK  134  A    between atoms: _321  and  _322
REMARK  135  A    between atoms: _325  and  _327
REMARK  136  A    between atoms: _327  and  _328
REMARK  137  A    between atoms: _327  and  _330
REMARK  138  A    between atoms: _330  and  _331
REMARK  139  A    between atoms: _331  and  _332
REMARK  140  A    between atoms: _335  and  _337
REMARK  141  A    between atoms: _337  and  _338
REMARK  142  A    between atoms: _337  and  _340
REMARK  143  A    between atoms: _340  and  _341
REMARK  144  A    between atoms: _341  and  _342
REMARK  145  A    between atoms: _345  and  _347
REMARK  146  A    between atoms: _347  and  _348
REMARK  147  A    between atoms: _347  and  _350
REMARK  148  A    between atoms: _353  and  _355
REMARK  149  A    between atoms: _355  and  _356
REMARK  150  A    between atoms: _355  and  _358
REMARK  151  A    between atoms: _358  and  _359
REMARK  152  A    between atoms: _361  and  _363
REMARK  153  A    between atoms: _363  and  _364
REMARK  154  A    between atoms: _363  and  _366
REMARK  155  A    between atoms: _366  and  _367
REMARK  156  A    between atoms: _367  and  _368
REMARK  157  A    between atoms: _368  and  _369
REMARK  158  A    between atoms: _369  and  _370
REMARK  159  A    between atoms: _374  and  _376
REMARK  160  A    between atoms: _376  and  _377
REMARK  161  A    between atoms: _376  and  _379
REMARK  162  A    between atoms: _379  and  _380
REMARK  163  A    between atoms: _385  and  _386
REMARK  164  A    between atoms: _388  and  _390
REMARK  165  A    between atoms: _390  and  _391
REMARK  166  A    between atoms: _393  and  _395
REMARK  167  A    between atoms: _395  and  _396
REMARK  168  A    between atoms: _395  and  _398
REMARK  169  A    between atoms: _401  and  _403
REMARK  170  A    between atoms: _403  and  _404
REMARK  171  A    between atoms: _403  and  _406
REMARK  172  A    between atoms: _406  and  _407
REMARK  173  A    between atoms: _407  and  _408
REMARK  174  A    between atoms: _410  and  _412
REMARK  175  A    between atoms: _412  and  _413
REMARK  176  A    between atoms: _412  and  _415
REMARK  177  A    between atoms: _418  and  _420
REMARK  178  A    between atoms: _420  and  _421
REMARK  179  A    between atoms: _420  and  _423
REMARK  180  A    between atoms: _423  and  _424
REMARK  181  A    between atoms: _424  and  _425
REMARK  182  A    between atoms: _428  and  _430
REMARK  183  A    between atoms: _430  and  _431
REMARK  184  A    between atoms: _430  and  _433
REMARK  185  A    between atoms: _433  and  _434
REMARK  186  A    between atoms: _434  and  _435
REMARK  187  A    between atoms: _435  and  _436
REMARK  188  A    between atoms: _436  and  _437
REMARK  189  A    between atoms: _441  and  _443
REMARK  190  A    between atoms: _443  and  _444
REMARK  191  A    between atoms: _443  and  _446
REMARK  192  A    between atoms: _446  and  _447
REMARK  193  A    between atoms: _450  and  _452
REMARK  194  A    between atoms: _452  and  _453
REMARK  195  A    between atoms: _456  and  _458
REMARK  196  A    between atoms: _458  and  _459
REMARK  197  A    between atoms: _458  and  _461
REMARK  198  A    between atoms: _464  and  _466
REMARK  199  A    between atoms: _466  and  _467
REMARK  200  A    between atoms: _466  and  _469
REMARK  201  A    between atoms: _469  and  _470
REMARK  202  A    between atoms: _473  and  _475
REMARK  203  A    between atoms: _475  and  _476
REMARK  204  A    between atoms: _478  and  _480
REMARK  205  A    between atoms: _480  and  _481
REMARK  206  A    between atoms: _480  and  _483
REMARK  207  A    between atoms: _483  and  _484
REMARK  208  A    between atoms: _484  and  _485
REMARK  209  A    between atoms: _485  and  _486
REMARK  210  A    between atoms: _495  and  _497
REMARK  211  A    between atoms: _497  and  _498
REMARK  212  A    between atoms: _497  and  _500
REMARK  213  A    between atoms: _500  and  _501
REMARK  214  A    between atoms: _506  and  _507
REMARK  215  A    between atoms: _509  and  _511
REMARK  216  A    between atoms: _511  and  _512
REMARK  217  A    between atoms: _511  and  _514
REMARK  218  A    between atoms: _514  and  _515
REMARK  219  A    between atoms: _520  and  _522
REMARK  220  A    between atoms: _522  and  _523
REMARK  221  A    between atoms: _522  and  _525
REMARK  222  A    between atoms: _525  and  _526
REMARK  223  A    between atoms: _526  and  _527
REMARK  224  A    between atoms: _530  and  _532
REMARK  225  A    between atoms: _532  and  _533
REMARK  226  A    between atoms: _532  and  _535
REMARK  227  A    between atoms: _535  and  _536
REMARK  228  A    between atoms: _539  and  _541
REMARK  229  A    between atoms: _541  and  _542
REMARK  230  A    between atoms: _541  and  _544
REMARK  231  A    between atoms: _544  and  _545
REMARK  232  A    between atoms: _545  and  _546
REMARK  233  A    between atoms: _551  and  _553
REMARK  234  A    between atoms: _553  and  _554
REMARK  235  A    between atoms: _553  and  _556
REMARK  236  A    between atoms: _556  and  _557
REMARK  237  A    between atoms: _560  and  _562
REMARK  238  A    between atoms: _562  and  _563
REMARK  239  A    between atoms: _562  and  _565
REMARK  240  A    between atoms: _565  and  _566
REMARK  241  A    between atoms: _569  and  _571
REMARK  242  A    between atoms: _571  and  _572
REMARK  243  A    between atoms: _571  and  _574
REMARK  244  A    between atoms: _574  and  _575
REMARK  245  A    between atoms: _578  and  _580
REMARK  246  A    between atoms: _580  and  _581
REMARK  247  A    between atoms: _580  and  _583
REMARK  248  A    between atoms: _583  and  _584
REMARK  249  A    between atoms: _587  and  _589
REMARK  250  A    between atoms: _589  and  _590
REMARK  251  A    between atoms: _589  and  _592
REMARK  252  A    between atoms: _592  and  _593
REMARK  253  A    between atoms: _593  and  _594
REMARK  254  A    between atoms: _594  and  _595
REMARK  255  A    between atoms: _604  and  _606
REMARK  256  A    between atoms: _606  and  _607
REMARK  257  A    between atoms: _606  and  _609
REMARK  258  A    between atoms: _609  and  _610
REMARK  259  A    between atoms: _615  and  _616
REMARK  260  A    between atoms: _618  and  _620
REMARK  261  A    between atoms: _620  and  _621
REMARK  262  A    between atoms: _620  and  _623
REMARK  263  A    between atoms: _623  and  _624
REMARK  264  A    between atoms: _627  and  _629
REMARK  265  A    between atoms: _629  and  _630
REMARK  266  A    between atoms: _629  and  _632
REMARK  267  A    between atoms: _634  and  _636
REMARK  268  A    between atoms: _636  and  _637
REMARK  269  A    between atoms: _639  and  _641
REMARK  270  A    between atoms: _641  and  _642
REMARK  271  A    between atoms: _641  and  _644
REMARK  272  A    between atoms: _644  and  _645
REMARK                            x       y       z     vdW  Elec       q    Type
REMARK                         _______ _______ _______ _____ _____    ______ ____
ROOT
ATOM      1  CA  TYR A   6      58.191  37.407  48.631  0.00  0.00    +0.153 C 
ENDROOT
BRANCH   1   2
ATOM      2  C   TYR A   6      58.923  38.551  47.927  0.00  0.00    +0.241 C 
ATOM      3  N   GLY A   7      58.964  39.720  48.552  0.00  0.00    -0.295 N 
ATOM      4  H   GLY A   7      58.525  39.822  49.489  0.00  0.00    +0.150 HD
ATOM      5  O   TYR A   6      59.440  38.373  46.828  0.00  0.00    -0.273 OA
BRANCH   3   6
ATOM      6  CA  GLY A   7      59.619  40.859  47.933  0.00  0.00    +0.176 C 
BRANCH   6   7
ATOM      7  C   GLY A   7      58.809  41.306  46.731  0.00  0.00    +0.243 C 
ATOM      8  N   THR A   8      57.487  41.328  46.900  0.00  0.00    -0.295 N 
ATOM      9  H   THR A   8      57.106  41.074  47.834  0.00  0.00    +0.150 HD
ATOM     10  O   GLY A   7      59.365  41.623  45.680  0.00  0.00    -0.273 OA
BRANCH   8  11
ATOM     11  CA  THR A   8      56.546  41.690  45.844  0.00  0.00    +0.176 C 
BRANCH  11  12
ATOM     12  C   THR A   8      56.851  42.981  45.097  0.00  0.00    +0.243 C 
ATOM     13  N   ARG A   9      57.375  43.985  45.789  0.00  0.00    -0.298 N 
ATOM     14  H   ARG A   9      57.579  43.884  46.804  0.00  0.00    +0.150 HD
ATOM     15  O   THR A   8      56.603  43.074  43.893  0.00  0.00    -0.273 OA
BRANCH  13  16
ATOM     16  CA  ARG A   9      57.657  45.232  45.092  0.00  0.00    +0.137 C 
BRANCH  16  17
ATOM     17  C   ARG A   9      58.820  45.123  44.108  0.00  0.00    +0.227 C 
ATOM     18  O   ARG A   9      59.002  45.993  43.264  0.00  0.00    -0.286 OA
ENDBRANCH  16  17
BRANCH  16  19
ATOM     19  CB  ARG A   9      57.895  46.380  46.088  0.00  0.00    +0.031 C 
BRANCH  19  20
ATOM     20  CG  ARG A   9      59.189  46.327  46.855  0.00  0.00    +0.045 C 
BRANCH  20  21
ATOM     21  CD  ARG A   9      59.379  47.589  47.686  0.00  0.00    +0.174 C 
BRANCH  21  22
ATOM     22  NE  ARG A   9      58.722  47.526  48.991  0.00  0.00    -0.265 N 
ATOM     23  HE  ARG A   9      59.330  47.444  49.831  0.00  0.00    +0.259 HD
ATOM     24  CZ  ARG A   9      57.406  47.565  49.188  0.00  0.00    +0.342 C 
ATOM     25  NH2 ARG A   9      56.911  47.496  50.420  0.00  0.00    -0.292 N 
ATOM     26 HH21 ARG A   9      57.553  47.411  51.234  0.00  0.00    +0.255 HD
ATOM     27 HH22 ARG A   9      55.882  47.527  50.570  0.00  0.00    +0.255 HD
ATOM     28  NH1 ARG A   9      56.582  47.681  48.159  0.00  0.00    -0.292 N 
ATOM     29 HH11 ARG A   9      55.554  47.711  48.316  0.00  0.00    +0.255 HD
ATOM     30 HH12 ARG A   9      56.962  47.742  47.193  0.00  0.00    +0.255 HD
ENDBRANCH  21  22
ENDBRANCH  20  21
ENDBRANCH  19  20
ENDBRANCH  16  19
ENDBRANCH  13  16
ENDBRANCH  11  12
BRANCH  11  31
ATOM     31  CB  THR A   8      55.105  41.783  46.401  0.00  0.00    +0.137 C 
ATOM     32  CG2 THR A   8      54.128  42.213  45.323  0.00  0.00    +0.034 C 
BRANCH  31  33
ATOM     33  OG1 THR A   8      54.705  40.502  46.888  0.00  0.00    -0.382 OA
ATOM     34  HG1 THR A   8      53.783  40.559  47.245  0.00  0.00    +0.210 HD
ENDBRANCH  31  33
ENDBRANCH  11  31
ENDBRANCH   8  11
ENDBRANCH   6   7
ENDBRANCH   3   6
ENDBRANCH   1   2
BRANCH   1  36
ATOM     35  C   GLY A   5      59.486  36.848  50.611  0.00  0.00    +0.243 C 
ATOM     36  N   TYR A   6      58.358  37.302  50.076  0.00  0.00    -0.297 N 
ATOM     37  H   TYR A   6      57.578  37.589  50.701  0.00  0.00    +0.150 HD
ATOM     38  O   GLY A   5      60.462  36.541  49.935  0.00  0.00    -0.273 OA
BRANCH  35  39
ATOM     39  CA  GLY A   5      59.538  36.746  52.122  0.00  0.00    +0.176 C 
BRANCH  39  41
ATOM     40  C   ALA A   4      60.551  34.571  52.385  0.00  0.00    +0.241 C 
ATOM     41  N   GLY A   5      60.622  35.886  52.554  0.00  0.00    -0.295 N 
ATOM     42  H   GLY A   5      61.464  36.303  53.001  0.00  0.00    +0.150 HD
ATOM     43  O   ALA A   4      59.586  34.016  51.870  0.00  0.00    -0.273 OA
BRANCH  40  44
ATOM     44  CA  ALA A   4      61.736  33.742  52.874  0.00  0.00    +0.149 C 
ATOM     45  CB  ALA A   4      61.239  32.614  53.797  0.00  0.00    +0.031 C 
BRANCH  44  47
ATOM     46  C   ALA A   3      63.920  34.802  52.958  0.00  0.00    +0.241 C 
ATOM     47  N   ALA A   4      62.769  34.507  53.553  0.00  0.00    -0.297 N 
ATOM     48  H   ALA A   4      62.603  34.831  54.527  0.00  0.00    +0.150 HD
ATOM     49  O   ALA A   3      64.178  34.491  51.785  0.00  0.00    -0.273 OA
BRANCH  46  50
ATOM     50  CA  ALA A   3      64.929  35.576  53.804  0.00  0.00    +0.149 C 
ATOM     51  CB  ALA A   3      66.343  35.220  53.374  0.00  0.00    +0.031 C 
BRANCH  50  54
ATOM     52  C   PRO A   2      65.080  36.191  56.150  0.00  0.00    +0.241 C 
ATOM     53  O   PRO A   2      65.518  37.312  55.862  0.00  0.00    -0.273 OA
ATOM     54  N   ALA A   3      64.763  35.287  55.226  0.00  0.00    -0.297 N 
ATOM     55  H   ALA A   3      64.392  34.361  55.521  0.00  0.00    +0.150 HD
BRANCH  52  61
ATOM     56  C   PHE A   1      67.263  35.470  58.012  0.00  0.00    +0.242 C 
ATOM     57  N   PRO A   2      66.132  36.106  58.328  0.00  0.00    -0.272 N 
ATOM     58  CD  PRO A   2      65.880  37.012  59.464  0.00  0.00    +0.094 C 
ATOM     59  CG  PRO A   2      64.420  36.778  59.739  0.00  0.00    +0.024 C 
ATOM     60  CB  PRO A   2      63.858  36.669  58.333  0.00  0.00    +0.031 C 
ATOM     61  CA  PRO A   2      64.890  35.792  57.619  0.00  0.00    +0.152 C 
ATOM     62  O   PHE A   1      67.300  34.599  57.137  0.00  0.00    -0.273 OA
BRANCH  56  63
ATOM     63  CA  PHE A   1      68.521  35.855  58.785  0.00  0.00    +0.149 C 
BRANCH  63  64
ATOM     64  N   PHE A   1      68.806  34.970  59.901  0.00  0.00    -0.238 NA
ATOM     65  H   PHE A   1      69.006  33.966  59.717  0.00  0.00    +0.142 HD
ENDBRANCH  63  64
BRANCH  63  66
ATOM     66  CB  PHE A   1      69.701  35.900  57.807  0.00  0.00    +0.053 C 
BRANCH  66  67
ATOM     67  CG  PHE A   1      70.992  36.367  58.423  0.00  0.00    -0.020 A 
ATOM     68  CD2 PHE A   1      71.790  35.485  59.154  0.00  0.00    -0.004 A 
ATOM     69  CE2 PHE A   1      72.983  35.910  59.722  0.00  0.00    -0.000 A 
ATOM     70  CZ  PHE A   1      73.394  37.227  59.565  0.00  0.00    -0.000 A 
ATOM     71  CE1 PHE A   1      72.603  38.122  58.834  0.00  0.00    -0.000 A 
ATOM     72  CD1 PHE A   1      71.412  37.688  58.270  0.00  0.00    -0.004 A 
ENDBRANCH  66  67
ENDBRANCH  63  66
ENDBRANCH  56  63
ENDBRANCH  52  61
ENDBRANCH  50  54
ENDBRANCH  46  50
ENDBRANCH  44  47
ENDBRANCH  40  44
ENDBRANCH  39  41
ENDBRANCH  35  39
ENDBRANCH   1  36
BRANCH   1  73
ATOM     73  CB  TYR A   6      56.701  37.477  48.289  0.00  0.00    +0.055 C 
BRANCH  73  74
ATOM     74  CG  TYR A   6      55.930  36.226  48.644  0.00  0.00    -0.020 A 
ATOM     75  CD2 TYR A   6      54.578  36.291  48.994  0.00  0.00    -0.001 A 
ATOM     76  CE2 TYR A   6      53.850  35.132  49.281  0.00  0.00    +0.036 A 
ATOM     77  CZ  TYR A   6      54.484  33.893  49.223  0.00  0.00    +0.134 A 
ATOM     78  CE1 TYR A   6      55.827  33.808  48.884  0.00  0.00    +0.036 A 
ATOM     79  CD1 TYR A   6      56.539  34.971  48.594  0.00  0.00    -0.001 A 
BRANCH  77  80
ATOM     80  OH  TYR A   6      53.777  32.742  49.490  0.00  0.00    -0.506 OA
ATOM     81  HH  TYR A   6      54.378  31.960  49.404  0.00  0.00    +0.292 HD
ENDBRANCH  77  80
ENDBRANCH  73  74
ENDBRANCH   1  73
TORSDOF 28
REMARK  Name = ../refined-set-2016/3juk/3juk_pocket.pdb
REMARK  272 active torsions:
REMARK  status: ('A' for Active; 'I' for Inactive)
REMARK    1  A    between atoms: _1  and  _3
REMARK    2  A    between atoms: _3  and  _4
REMARK    3  A    between atoms: _3  and  _6
REMARK    4  A    between atoms: _6  and  _7
REMARK    5  A    between atoms: _14  and  _15
REMARK    6  A    between atoms: _20  and  _22
REMARK    7  A    between atoms: _22  and  _23
REMARK    8  A    between atoms: _26  and  _28
REMARK    9  A    between atoms: _28  and  _29
REMARK   10  A    between atoms: _32  and  _34
REMARK   11  A    between atoms: _34  and  _35
REMARK   12  A    between atoms: _37  and  _39
REMARK   13  A    between atoms: _39  and  _40
REMARK   14  A    between atoms: _39  and  _42
REMARK   15  A    between atoms: _42  and  _43
REMARK   16  A    between atoms: _48  and  _49
REMARK   17  A    between atoms: _51  and  _53
REMARK   18  A    between atoms: _53  and  _54
REMARK   19  A    between atoms: _56  and  _58
REMARK   20  A    between atoms: _58  and  _59
REMARK   21  A    between atoms: _58  and  _61
REMARK   22  A    between atoms: _61  and  _62
REMARK   23  A    between atoms: _65  and  _67
REMARK   24  A    between atoms: _67  and  _68
REMARK   25  A    between atoms: _67  and  _70
REMARK   26  A    between atoms: _70  and  _71
REMARK   27  A    between atoms: _71  and  _72
REMARK   28  A    between atoms: _72  and  _73
REMARK   29  A    between atoms: _83  and  _84
REMARK   30  A    between atoms: _89  and  _91
REMARK   31  A    between atoms: _91  and  _92
REMARK   32  A    between atoms: _91  and  _94
REMARK   33  A    between atoms: _94  and  _95
REMARK   34  A    between atoms: _95  and  _96
REMARK   35  A    between atoms: _96  and  _97
REMARK   36  A    between atoms: _97  and  _98
REMARK   37  A    between atoms: _102  and  _104
REMARK   38  A    between atoms: _104  and  _105
REMARK   39  A    between atoms: _104  and  _107
REMARK   40  A    between atoms: _107  and  _108
REMARK   41  A    between atoms: _108  and  _109
REMARK   42  A    between atoms: _112  and  _114
REMARK   43  A    between atoms: _114  and  _115
REMARK   44  A    between atoms: _114  and  _117
REMARK   45  A    between atoms: _117  and  _118
REMARK   46  A    between atoms: _121  and  _123
REMARK   47  A    between atoms: _123  and  _124
REMARK   48  A    between atoms: _123  and  _126
REMARK   49  A    between atoms: _129  and  _131
REMARK   50  A    between atoms: _131  and  _132
REMARK   51  A    between atoms: _131  and  _134
REMARK   52  A    between atoms: _134  and  _135
REMARK   53  A    between atoms: _138  and  _140
REMARK   54  A    between atoms: _140  and  _141
REMARK   55  A    between atoms: _143  and  _145
REMARK   56  A    between atoms: _145  and  _146
REMARK   57  A    between atoms: _145  and  _148
REMARK   58  A    between atoms: _148  and  _149
REMARK   59  A    between atoms: _149  and  _150
REMARK   60  A    between atoms: _155  and  _157
REMARK   61  A    between atoms: _157  and  _158
REMARK   62  A    between atoms: _157  and  _160
REMARK   63  A    between atoms: _160  and  _161
REMARK   64  A    between atoms: _161  and  _162
REMARK   65  A    between atoms: _167  and  _169
REMARK   66  A    between atoms: _169  and  _170
REMARK   67  A    between atoms: _169  and  _172
REMARK   68  A    between atoms: _172  and  _173
REMARK   69  A    between atoms: _173  and  _174
REMARK   70  A    between atoms: _176  and  _178
REMARK   71  A    between atoms: _178  and  _179
REMARK   72  A    between atoms: _178  and  _181
REMARK   73  A    between atoms: _181  and  _182
REMARK   74  A    between atoms: _182  and  _183
REMARK   75  A    between atoms: _183  and  _184
REMARK   76  A    between atoms: _184  and  _185
REMARK   77  A    between atoms: _189  and  _191
REMARK   78  A    between atoms: _191  and  _192
REMARK   79  A    between atoms: _194  and  _196
REMARK   80  A    between atoms: _196  and  _197
REMARK   81  A    between atoms: _196  and  _199
REMARK   82  A    between atoms: _199  and  _200
REMARK   83  A    between atoms: _203  and  _205
REMARK   84  A    between atoms: _205  and  _206
REMARK   85  A    between atoms: _208  and  _210
REMARK   86  A    between atoms: _210  and  _211
REMARK   87  A    between atoms: _210  and  _213
REMARK   88  A    between atoms: _213  and  _214
REMARK   89  A    between atoms: _219  and  _221
REMARK   90  A    between atoms: _221  and  _222
REMARK   91  A    between atoms: _225  and  _227
REMARK   92  A    between atoms: _227  and  _228
REMARK   93  A    between atoms: _227  and  _230
REMARK   94  A    between atoms: _230  and  _231
REMARK   95  A    between atoms: _234  and  _236
REMARK   96  A    between atoms: _236  and  _237
REMARK   97  A    between atoms: _236  and  _239
REMARK   98  A    between atoms: _239  and  _240
REMARK   99  A    between atoms: _243  and  _245
REMARK  100  A    between atoms: _245  and  _246
REMARK  101  A    between atoms: _245  and  _248
REMARK  102  A    between atoms: _251  and  _253
REMARK  103  A    between atoms: _253  and  _254
REMARK  104  A    between atoms: _253  and  _256
REMARK  105  A    between atoms: _256  and  _257
REMARK  106  A    between atoms: _260  and  _262
REMARK  107  A    between atoms: _262  and  _263
REMARK  108  A    between atoms: _262  and  _265
REMARK  109  A    between atoms: _265  and  _266
REMARK  110  A    between atoms: _269  and  _271
REMARK  111  A    between atoms: _271  and  _272
REMARK  112  A    between atoms: _275  and  _277
REMARK  113  A    between atoms: _277  and  _278
REMARK  114  A    between atoms: _277  and  _280
REMARK  115  A    between atoms: _280  and  _281
REMARK  116  A    between atoms: _281  and  _282
REMARK  117  A    between atoms: _282  and  MG_647
REMARK  118  A    between atoms: _284  and  _286
REMARK  119  A    between atoms: _286  and  _287
REMARK  120  A    between atoms: _286  and  _289
REMARK  121  A    between atoms: _289  and  _290
REMARK  122  A    between atoms: _293  and  _295
REMARK  123  A    between atoms: _295  and  _296
REMARK  124  A    between atoms: _295  and  _298
REMARK  125  A    between atoms: _298  and  _299
REMARK  126  A    between atoms: _302  and  _304
REMARK  127  A    between atoms: _304  and  _305
REMARK  128  A    between atoms: _304  and  _307
REMARK  129  A    between atoms: _310  and  _312
REMARK  130  A    between atoms: _312  and  _313
REMARK  131  A    between atoms: _316  and  _318
REMARK  132  A    between atoms: _318  and  _319
REMARK  133  A    between atoms: _318  and  _321
REMARK  134  A    between atoms: _321  and  _322
REMARK  135  A    between atoms: _325  and  _327
REMARK  136  A    between atoms: _327  and  _328
REMARK  137  A    between atoms: _327  and  _330
REMARK  138  A    between atoms: _330  and  _331
REMARK  139  A    between atoms: _331  and  _332
REMARK  140  A    between atoms: _335  and  _337
REMARK  141  A    between atoms: _337  and  _338
REMARK  142  A    between atoms: _337  and  _340
REMARK  143  A    between atoms: _340  and  _341
REMARK  144  A    between atoms: _341  and  _342
REMARK  145  A    between atoms: _345  and  _347
REMARK  146  A    between atoms: _347  and  _348
REMARK  147  A    between atoms: _347  and  _350
REMARK  148  A    between atoms: _353  and  _355
REMARK  149  A    between atoms: _355  and  _356
REMARK  150  A    between atoms: _355  and  _358
REMARK  151  A    between atoms: _358  and  _359
REMARK  152  A    between atoms: _361  and  _363
REMARK  153  A    between atoms: _363  and  _364
REMARK  154  A    between atoms: _363  and  _366
REMARK  155  A    between atoms: _366  and  _367
REMARK  156  A    between atoms: _367  and  _368
REMARK  157  A    between atoms: _368  and  _369
REMARK  158  A    between atoms: _369  and  _370
REMARK  159  A    between atoms: _374  and  _376
REMARK  160  A    between atoms: _376  and  _377
REMARK  161  A    between atoms: _376  and  _379
REMARK  162  A    between atoms: _379  and  _380
REMARK  163  A    between atoms: _385  and  _386
REMARK  164  A    between atoms: _388  and  _390
REMARK  165  A    between atoms: _390  and  _391
REMARK  166  A    between atoms: _393  and  _395
REMARK  167  A    between atoms: _395  and  _396
REMARK  168  A    between atoms: _395  and  _398
REMARK  169  A    between atoms: _401  and  _403
REMARK  170  A    between atoms: _403  and  _404
REMARK  171  A    between atoms: _403  and  _406
REMARK  172  A    between atoms: _406  and  _407
REMARK  173  A    between atoms: _407  and  _408
REMARK  174  A    between atoms: _410  and  _412
REMARK  175  A    between atoms: _412  and  _413
REMARK  176  A    between atoms: _412  and  _415
REMARK  177  A    between atoms: _418  and  _420
REMARK  178  A    between atoms: _420  and  _421
REMARK  179  A    between atoms: _420  and  _423
REMARK  180  A    between atoms: _423  and  _424
REMARK  181  A    between atoms: _424  and  _425
REMARK  182  A    between atoms: _428  and  _430
REMARK  183  A    between atoms: _430  and  _431
REMARK  184  A    between atoms: _430  and  _433
REMARK  185  A    between atoms: _433  and  _434
REMARK  186  A    between atoms: _434  and  _435
REMARK  187  A    between atoms: _435  and  _436
REMARK  188  A    between atoms: _436  and  _437
REMARK  189  A    between atoms: _441  and  _443
REMARK  190  A    between atoms: _443  and  _444
REMARK  191  A    between atoms: _443  and  _446
REMARK  192  A    between atoms: _446  and  _447
REMARK  193  A    between atoms: _450  and  _452
REMARK  194  A    between atoms: _452  and  _453
REMARK  195  A    between atoms: _456  and  _458
REMARK  196  A    between atoms: _458  and  _459
REMARK  197  A    between atoms: _458  and  _461
REMARK  198  A    between atoms: _464  and  _466
REMARK  199  A    between atoms: _466  and  _467
REMARK  200  A    between atoms: _466  and  _469
REMARK  201  A    between atoms: _469  and  _470
REMARK  202  A    between atoms: _473  and  _475
REMARK  203  A    between atoms: _475  and  _476
REMARK  204  A    between atoms: _478  and  _480
REMARK  205  A    between atoms: _480  and  _481
REMARK  206  A    between atoms: _480  and  _483
REMARK  207  A    between atoms: _483  and  _484
REMARK  208  A    between atoms: _484  and  _485
REMARK  209  A    between atoms: _485  and  _486
REMARK  210  A    between atoms: _495  and  _497
REMARK  211  A    between atoms: _497  and  _498
REMARK  212  A    between atoms: _497  and  _500
REMARK  213  A    between atoms: _500  and  _501
REMARK  214  A    between atoms: _506  and  _507
REMARK  215  A    between atoms: _509  and  _511
REMARK  216  A    between atoms: _511  and  _512
REMARK  217  A    between atoms: _511  and  _514
REMARK  218  A    between atoms: _514  and  _515
REMARK  219  A    between atoms: _520  and  _522
REMARK  220  A    between atoms: _522  and  _523
REMARK  221  A    between atoms: _522  and  _525
REMARK  222  A    between atoms: _525  and  _526
REMARK  223  A    between atoms: _526  and  _527
REMARK  224  A    between atoms: _530  and  _532
REMARK  225  A    between atoms: _532  and  _533
REMARK  226  A    between atoms: _532  and  _535
REMARK  227  A    between atoms: _535  and  _536
REMARK  228  A    between atoms: _539  and  _541
REMARK  229  A    between atoms: _541  and  _542
REMARK  230  A    between atoms: _541  and  _544
REMARK  231  A    between atoms: _544  and  _545
REMARK  232  A    between atoms: _545  and  _546
REMARK  233  A    between atoms: _551  and  _553
REMARK  234  A    between atoms: _553  and  _554
REMARK  235  A    between atoms: _553  and  _556
REMARK  236  A    between atoms: _556  and  _557
REMARK  237  A    between atoms: _560  and  _562
REMARK  238  A    between atoms: _562  and  _563
REMARK  239  A    between atoms: _562  and  _565
REMARK  240  A    between atoms: _565  and  _566
REMARK  241  A    between atoms: _569  and  _571
REMARK  242  A    between atoms: _571  and  _572
REMARK  243  A    between atoms: _571  and  _574
REMARK  244  A    between atoms: _574  and  _575
REMARK  245  A    between atoms: _578  and  _580
REMARK  246  A    between atoms: _580  and  _581
REMARK  247  A    between atoms: _580  and  _583
REMARK  248  A    between atoms: _583  and  _584
REMARK  249  A    between atoms: _587  and  _589
REMARK  250  A    between atoms: _589  and  _590
REMARK  251  A    between atoms: _589  and  _592
REMARK  252  A    between atoms: _592  and  _593
REMARK  253  A    between atoms: _593  and  _594
REMARK  254  A    between atoms: _594  and  _595
REMARK  255  A    between atoms: _604  and  _606
REMARK  256  A    between atoms: _606  and  _607
REMARK  257  A    between atoms: _606  and  _609
REMARK  258  A    between atoms: _609  and  _610
REMARK  259  A    between atoms: _615  and  _616
REMARK  260  A    between atoms: _618  and  _620
REMARK  261  A    between atoms: _620  and  _621
REMARK  262  A    between atoms: _620  and  _623
REMARK  263  A    between atoms: _623  and  _624
REMARK  264  A    between atoms: _627  and  _629
REMARK  265  A    between atoms: _629  and  _630
REMARK  266  A    between atoms: _629  and  _632
REMARK  267  A    between atoms: _634  and  _636
REMARK  268  A    between atoms: _636  and  _637
REMARK  269  A    between atoms: _639  and  _641
REMARK  270  A    between atoms: _641  and  _642
REMARK  271  A    between atoms: _641  and  _644
REMARK  272  A    between atoms: _644  and  _645
REMARK                            x       y       z     vdW  Elec       q    Type
REMARK                         _______ _______ _______ _____ _____    ______ ____
ROOT
ATOM      1  CA  LYS A   2      65.158  40.392  47.756  0.00  0.00    +0.149 C 
ENDROOT
BRANCH   1   3
ATOM      2  C   PRO A   1      65.705  38.134  47.114  0.00  0.00    +0.239 C 
ATOM      3  N   LYS A   2      64.814  38.983  47.620  0.00  0.00    -0.297 N 
ATOM      4  H   LYS A   2      63.877  38.642  47.917  0.00  0.00    +0.150 HD
ATOM      5  O   PRO A   1      66.838  38.481  46.782  0.00  0.00    -0.274 OA
BRANCH   2   7
ATOM      6  N   PRO A   1      65.935  36.122  45.754  0.00  0.00    -0.210 NA
ATOM      7  CA  PRO A   1      65.285  36.681  46.952  0.00  0.00    +0.149 C 
ATOM      8  CB  PRO A   1      65.806  35.792  48.074  0.00  0.00    +0.028 C 
ATOM      9  CG  PRO A   1      67.191  35.460  47.597  0.00  0.00    +0.021 C 
ATOM     10  CD  PRO A   1      66.973  35.145  46.127  0.00  0.00    +0.089 C 
ENDBRANCH   2   7
ENDBRANCH   1   3
BRANCH   1  11
ATOM     11  C   LYS A   2      66.403  40.677  48.597  0.00  0.00    +0.241 C 
ATOM     12  N   GLU A   3      66.776  39.748  49.478  0.00  0.00    -0.298 N 
ATOM     13  H   GLU A   3      66.215  38.877  49.571  0.00  0.00    +0.150 HD
ATOM     14  O   LYS A   2      67.023  41.731  48.439  0.00  0.00    -0.273 OA
BRANCH  12  15
ATOM     15  CA  GLU A   3      67.961  39.932  50.317  0.00  0.00    +0.137 C 
BRANCH  15  16
ATOM     16  C   GLU A   3      69.246  39.742  49.503  0.00  0.00    +0.227 C 
ATOM     17  O   GLU A   3      70.331  40.147  49.932  0.00  0.00    -0.286 OA
ENDBRANCH  15  16
BRANCH  15  18
ATOM     18  CB  GLU A   3      67.966  38.959  51.505  0.00  0.00    +0.039 C 
BRANCH  18  19
ATOM     19  CG  GLU A   3      66.977  39.273  52.645  0.00  0.00    +0.116 C 
BRANCH  19  20
ATOM     20  CD  GLU A   3      65.517  38.995  52.278  0.00  0.00    +0.365 C 
ATOM     21  OE2 GLU A   3      64.623  39.641  52.866  0.00  0.00    -0.246 OA
ATOM     22  OE1 GLU A   3      65.262  38.123  51.415  0.00  0.00    -0.246 OA
ENDBRANCH  19  20
ENDBRANCH  18  19
ENDBRANCH  15  18
ENDBRANCH  12  15
ENDBRANCH   1  11
BRANCH   1  23
ATOM     23  CB  LYS A   2      63.958  41.207  48.274  0.00  0.00    +0.029 C 
BRANCH  23  24
ATOM     24  CG  LYS A   2      63.587  41.019  49.733  0.00  0.00    +0.000 C 
BRANCH  24  25
ATOM     25  CD  LYS A   2      62.630  42.131  50.172  0.00  0.00    -0.024 C 
BRANCH  25  26
ATOM     26  CE  LYS A   2      62.197  41.992  51.630  0.00  0.00    -0.086 C 
BRANCH  26  27
ATOM     27  NZ  LYS A   2      61.071  42.928  51.973  0.00  0.00    +0.380 N 
ATOM     28  HZ1 LYS A   2      60.808  42.801  52.971  0.00  0.00    -0.089 HD
ATOM     29  HZ2 LYS A   2      61.378  43.909  51.816  0.00  0.00    -0.089 HD
ATOM     30  HZ3 LYS A   2      60.251  42.719  51.368  0.00  0.00    -0.089 HD
ENDBRANCH  26  27
ENDBRANCH  25  26
ENDBRANCH  24  25
ENDBRANCH  23  24
ENDBRANCH   1  23
TORSDOF 13
REMARK  Name = ../refined-set-2016/3juk/3juk_pocket.pdb
REMARK  272 active torsions:
REMARK  status: ('A' for Active; 'I' for Inactive)
REMARK    1  A    between atoms: _1  and  _3
REMARK    2  A    between atoms: _3  and  _4
REMARK    3  A    between atoms: _3  and  _6
REMARK    4  A    between atoms: _6  and  _7
REMARK    5  A    between atoms: _14  and  _15
REMARK    6  A    between atoms: _20  and  _22
REMARK    7  A    between atoms: _22  and  _23
REMARK    8  A    between atoms: _26  and  _28
REMARK    9  A    between atoms: _28  and  _29
REMARK   10  A    between atoms: _32  and  _34
REMARK   11  A    between atoms: _34  and  _35
REMARK   12  A    between atoms: _37  and  _39
REMARK   13  A    between atoms: _39  and  _40
REMARK   14  A    between atoms: _39  and  _42
REMARK   15  A    between atoms: _42  and  _43
REMARK   16  A    between atoms: _48  and  _49
REMARK   17  A    between atoms: _51  and  _53
REMARK   18  A    between atoms: _53  and  _54
REMARK   19  A    between atoms: _56  and  _58
REMARK   20  A    between atoms: _58  and  _59
REMARK   21  A    between atoms: _58  and  _61
REMARK   22  A    between atoms: _61  and  _62
REMARK   23  A    between atoms: _65  and  _67
REMARK   24  A    between atoms: _67  and  _68
REMARK   25  A    between atoms: _67  and  _70
REMARK   26  A    between atoms: _70  and  _71
REMARK   27  A    between atoms: _71  and  _72
REMARK   28  A    between atoms: _72  and  _73
REMARK   29  A    between atoms: _83  and  _84
REMARK   30  A    between atoms: _89  and  _91
REMARK   31  A    between atoms: _91  and  _92
REMARK   32  A    between atoms: _91  and  _94
REMARK   33  A    between atoms: _94  and  _95
REMARK   34  A    between atoms: _95  and  _96
REMARK   35  A    between atoms: _96  and  _97
REMARK   36  A    between atoms: _97  and  _98
REMARK   37  A    between atoms: _102  and  _104
REMARK   38  A    between atoms: _104  and  _105
REMARK   39  A    between atoms: _104  and  _107
REMARK   40  A    between atoms: _107  and  _108
REMARK   41  A    between atoms: _108  and  _109
REMARK   42  A    between atoms: _112  and  _114
REMARK   43  A    between atoms: _114  and  _115
REMARK   44  A    between atoms: _114  and  _117
REMARK   45  A    between atoms: _117  and  _118
REMARK   46  A    between atoms: _121  and  _123
REMARK   47  A    between atoms: _123  and  _124
REMARK   48  A    between atoms: _123  and  _126
REMARK   49  A    between atoms: _129  and  _131
REMARK   50  A    between atoms: _131  and  _132
REMARK   51  A    between atoms: _131  and  _134
REMARK   52  A    between atoms: _134  and  _135
REMARK   53  A    between atoms: _138  and  _140
REMARK   54  A    between atoms: _140  and  _141
REMARK   55  A    between atoms: _143  and  _145
REMARK   56  A    between atoms: _145  and  _146
REMARK   57  A    between atoms: _145  and  _148
REMARK   58  A    between atoms: _148  and  _149
REMARK   59  A    between atoms: _149  and  _150
REMARK   60  A    between atoms: _155  and  _157
REMARK   61  A    between atoms: _157  and  _158
REMARK   62  A    between atoms: _157  and  _160
REMARK   63  A    between atoms: _160  and  _161
REMARK   64  A    between atoms: _161  and  _162
REMARK   65  A    between atoms: _167  and  _169
REMARK   66  A    between atoms: _169  and  _170
REMARK   67  A    between atoms: _169  and  _172
REMARK   68  A    between atoms: _172  and  _173
REMARK   69  A    between atoms: _173  and  _174
REMARK   70  A    between atoms: _176  and  _178
REMARK   71  A    between atoms: _178  and  _179
REMARK   72  A    between atoms: _178  and  _181
REMARK   73  A    between atoms: _181  and  _182
REMARK   74  A    between atoms: _182  and  _183
REMARK   75  A    between atoms: _183  and  _184
REMARK   76  A    between atoms: _184  and  _185
REMARK   77  A    between atoms: _189  and  _191
REMARK   78  A    between atoms: _191  and  _192
REMARK   79  A    between atoms: _194  and  _196
REMARK   80  A    between atoms: _196  and  _197
REMARK   81  A    between atoms: _196  and  _199
REMARK   82  A    between atoms: _199  and  _200
REMARK   83  A    between atoms: _203  and  _205
REMARK   84  A    between atoms: _205  and  _206
REMARK   85  A    between atoms: _208  and  _210
REMARK   86  A    between atoms: _210  and  _211
REMARK   87  A    between atoms: _210  and  _213
REMARK   88  A    between atoms: _213  and  _214
REMARK   89  A    between atoms: _219  and  _221
REMARK   90  A    between atoms: _221  and  _222
REMARK   91  A    between atoms: _225  and  _227
REMARK   92  A    between atoms: _227  and  _228
REMARK   93  A    between atoms: _227  and  _230
REMARK   94  A    between atoms: _230  and  _231
REMARK   95  A    between atoms: _234  and  _236
REMARK   96  A    between atoms: _236  and  _237
REMARK   97  A    between atoms: _236  and  _239
REMARK   98  A    between atoms: _239  and  _240
REMARK   99  A    between atoms: _243  and  _245
REMARK  100  A    between atoms: _245  and  _246
REMARK  101  A    between atoms: _245  and  _248
REMARK  102  A    between atoms: _251  and  _253
REMARK  103  A    between atoms: _253  and  _254
REMARK  104  A    between atoms: _253  and  _256
REMARK  105  A    between atoms: _256  and  _257
REMARK  106  A    between atoms: _260  and  _262
REMARK  107  A    between atoms: _262  and  _263
REMARK  108  A    between atoms: _262  and  _265
REMARK  109  A    between atoms: _265  and  _266
REMARK  110  A    between atoms: _269  and  _271
REMARK  111  A    between atoms: _271  and  _272
REMARK  112  A    between atoms: _275  and  _277
REMARK  113  A    between atoms: _277  and  _278
REMARK  114  A    between atoms: _277  and  _280
REMARK  115  A    between atoms: _280  and  _281
REMARK  116  A    between atoms: _281  and  _282
REMARK  117  A    between atoms: _282  and  MG_647
REMARK  118  A    between atoms: _284  and  _286
REMARK  119  A    between atoms: _286  and  _287
REMARK  120  A    between atoms: _286  and  _289
REMARK  121  A    between atoms: _289  and  _290
REMARK  122  A    between atoms: _293  and  _295
REMARK  123  A    between atoms: _295  and  _296
REMARK  124  A    between atoms: _295  and  _298
REMARK  125  A    between atoms: _298  and  _299
REMARK  126  A    between atoms: _302  and  _304
REMARK  127  A    between atoms: _304  and  _305
REMARK  128  A    between atoms: _304  and  _307
REMARK  129  A    between atoms: _310  and  _312
REMARK  130  A    between atoms: _312  and  _313
REMARK  131  A    between atoms: _316  and  _318
REMARK  132  A    between atoms: _318  and  _319
REMARK  133  A    between atoms: _318  and  _321
REMARK  134  A    between atoms: _321  and  _322
REMARK  135  A    between atoms: _325  and  _327
REMARK  136  A    between atoms: _327  and  _328
REMARK  137  A    between atoms: _327  and  _330
REMARK  138  A    between atoms: _330  and  _331
REMARK  139  A    between atoms: _331  and  _332
REMARK  140  A    between atoms: _335  and  _337
REMARK  141  A    between atoms: _337  and  _338
REMARK  142  A    between atoms: _337  and  _340
REMARK  143  A    between atoms: _340  and  _341
REMARK  144  A    between atoms: _341  and  _342
REMARK  145  A    between atoms: _345  and  _347
REMARK  146  A    between atoms: _347  and  _348
REMARK  147  A    between atoms: _347  and  _350
REMARK  148  A    between atoms: _353  and  _355
REMARK  149  A    between atoms: _355  and  _356
REMARK  150  A    between atoms: _355  and  _358
REMARK  151  A    between atoms: _358  and  _359
REMARK  152  A    between atoms: _361  and  _363
REMARK  153  A    between atoms: _363  and  _364
REMARK  154  A    between atoms: _363  and  _366
REMARK  155  A    between atoms: _366  and  _367
REMARK  156  A    between atoms: _367  and  _368
REMARK  157  A    between atoms: _368  and  _369
REMARK  158  A    between atoms: _369  and  _370
REMARK  159  A    between atoms: _374  and  _376
REMARK  160  A    between atoms: _376  and  _377
REMARK  161  A    between atoms: _376  and  _379
REMARK  162  A    between atoms: _379  and  _380
REMARK  163  A    between atoms: _385  and  _386
REMARK  164  A    between atoms: _388  and  _390
REMARK  165  A    between atoms: _390  and  _391
REMARK  166  A    between atoms: _393  and  _395
REMARK  167  A    between atoms: _395  and  _396
REMARK  168  A    between atoms: _395  and  _398
REMARK  169  A    between atoms: _401  and  _403
REMARK  170  A    between atoms: _403  and  _404
REMARK  171  A    between atoms: _403  and  _406
REMARK  172  A    between atoms: _406  and  _407
REMARK  173  A    between atoms: _407  and  _408
REMARK  174  A    between atoms: _410  and  _412
REMARK  175  A    between atoms: _412  and  _413
REMARK  176  A    between atoms: _412  and  _415
REMARK  177  A    between atoms: _418  and  _420
REMARK  178  A    between atoms: _420  and  _421
REMARK  179  A    between atoms: _420  and  _423
REMARK  180  A    between atoms: _423  and  _424
REMARK  181  A    between atoms: _424  and  _425
REMARK  182  A    between atoms: _428  and  _430
REMARK  183  A    between atoms: _430  and  _431
REMARK  184  A    between atoms: _430  and  _433
REMARK  185  A    between atoms: _433  and  _434
REMARK  186  A    between atoms: _434  and  _435
REMARK  187  A    between atoms: _435  and  _436
REMARK  188  A    between atoms: _436  and  _437
REMARK  189  A    between atoms: _441  and  _443
REMARK  190  A    between atoms: _443  and  _444
REMARK  191  A    between atoms: _443  and  _446
REMARK  192  A    between atoms: _446  and  _447
REMARK  193  A    between atoms: _450  and  _452
REMARK  194  A    between atoms: _452  and  _453
REMARK  195  A    between atoms: _456  and  _458
REMARK  196  A    between atoms: _458  and  _459
REMARK  197  A    between atoms: _458  and  _461
REMARK  198  A    between atoms: _464  and  _466
REMARK  199  A    between atoms: _466  and  _467
REMARK  200  A    between atoms: _466  and  _469
REMARK  201  A    between atoms: _469  and  _470
REMARK  202  A    between atoms: _473  and  _475
REMARK  203  A    between atoms: _475  and  _476
REMARK  204  A    between atoms: _478  and  _480
REMARK  205  A    between atoms: _480  and  _481
REMARK  206  A    between atoms: _480  and  _483
REMARK  207  A    between atoms: _483  and  _484
REMARK  208  A    between atoms: _484  and  _485
REMARK  209  A    between atoms: _485  and  _486
REMARK  210  A    between atoms: _495  and  _497
REMARK  211  A    between atoms: _497  and  _498
REMARK  212  A    between atoms: _497  and  _500
REMARK  213  A    between atoms: _500  and  _501
REMARK  214  A    between atoms: _506  and  _507
REMARK  215  A    between atoms: _509  and  _511
REMARK  216  A    between atoms: _511  and  _512
REMARK  217  A    between atoms: _511  and  _514
REMARK  218  A    between atoms: _514  and  _515
REMARK  219  A    between atoms: _520  and  _522
REMARK  220  A    between atoms: _522  and  _523
REMARK  221  A    between atoms: _522  and  _525
REMARK  222  A    between atoms: _525  and  _526
REMARK  223  A    between atoms: _526  and  _527
REMARK  224  A    between atoms: _530  and  _532
REMARK  225  A    between atoms: _532  and  _533
REMARK  226  A    between atoms: _532  and  _535
REMARK  227  A    between atoms: _535  and  _536
REMARK  228  A    between atoms: _539  and  _541
REMARK  229  A    between atoms: _541  and  _542
REMARK  230  A    between atoms: _541  and  _544
REMARK  231  A    between atoms: _544  and  _545
REMARK  232  A    between atoms: _545  and  _546
REMARK  233  A    between atoms: _551  and  _553
REMARK  234  A    between atoms: _553  and  _554
REMARK  235  A    between atoms: _553  and  _556
REMARK  236  A    between atoms: _556  and  _557
REMARK  237  A    between atoms: _560  and  _562
REMARK  238  A    between atoms: _562  and  _563
REMARK  239  A    between atoms: _562  and  _565
REMARK  240  A    between atoms: _565  and  _566
REMARK  241  A    between atoms: _569  and  _571
REMARK  242  A    between atoms: _571  and  _572
REMARK  243  A    between atoms: _571  and  _574
REMARK  244  A    between atoms: _574  and  _575
REMARK  245  A    between atoms: _578  and  _580
REMARK  246  A    between atoms: _580  and  _581
REMARK  247  A    between atoms: _580  and  _583
REMARK  248  A    between atoms: _583  and  _584
REMARK  249  A    between atoms: _587  and  _589
REMARK  250  A    between atoms: _589  and  _590
REMARK  251  A    between atoms: _589  and  _592
REMARK  252  A    between atoms: _592  and  _593
REMARK  253  A    between atoms: _593  and  _594
REMARK  254  A    between atoms: _594  and  _595
REMARK  255  A    between atoms: _604  and  _606
REMARK  256  A    between atoms: _606  and  _607
REMARK  257  A    between atoms: _606  and  _609
REMARK  258  A    between atoms: _609  and  _610
REMARK  259  A    between atoms: _615  and  _616
REMARK  260  A    between atoms: _618  and  _620
REMARK  261  A    between atoms: _620  and  _621
REMARK  262  A    between atoms: _620  and  _623
REMARK  263  A    between atoms: _623  and  _624
REMARK  264  A    between atoms: _627  and  _629
REMARK  265  A    between atoms: _629  and  _630
REMARK  266  A    between atoms: _629  and  _632
REMARK  267  A    between atoms: _634  and  _636
REMARK  268  A    between atoms: _636  and  _637
REMARK  269  A    between atoms: _639  and  _641
REMARK  270  A    between atoms: _641  and  _642
REMARK  271  A    between atoms: _641  and  _644
REMARK  272  A    between atoms: _644  and  _645
REMARK                            x       y       z     vdW  Elec       q    Type
REMARK                         _______ _______ _______ _____ _____    ______ ____
ROOT
ATOM      1  CA  ILE A   1      72.716  39.945  52.767  0.00  0.00    +0.133 C 
ENDROOT
BRANCH   1   2
ATOM      2  N   ILE A   1      72.343  40.926  51.746  0.00  0.00    -0.239 NA
ATOM      3  H   ILE A   1      71.903  40.593  50.865  0.00  0.00    +0.142 HD
ENDBRANCH   1   2
BRANCH   1   4
ATOM      4  C   ILE A   1      74.204  39.914  53.184  0.00  0.00    +0.224 C 
ATOM      5  O   ILE A   1      74.510  39.618  54.345  0.00  0.00    -0.287 OA
ENDBRANCH   1   4
BRANCH   1   6
ATOM      6  CB  ILE A   1      72.241  38.509  52.344  0.00  0.00    +0.023 C 
ATOM      7  CG2 ILE A   1      73.113  37.963  51.236  0.00  0.00    +0.002 C 
BRANCH   6   8
ATOM      8  CG1 ILE A   1      72.281  37.555  53.538  0.00  0.00    +0.002 C 
ATOM      9  CD1 ILE A   1      71.260  37.865  54.617  0.00  0.00    +0.000 C 
ENDBRANCH   6   8
ENDBRANCH   1   6
TORSDOF 4
REMARK  Name = ../refined-set-2016/3juk/3juk_pocket.pdb
REMARK  272 active torsions:
REMARK  status: ('A' for Active; 'I' for Inactive)
REMARK    1  A    between atoms: _1  and  _3
REMARK    2  A    between atoms: _3  and  _4
REMARK    3  A    between atoms: _3  and  _6
REMARK    4  A    between atoms: _6  and  _7
REMARK    5  A    between atoms: _14  and  _15
REMARK    6  A    between atoms: _20  and  _22
REMARK    7  A    between atoms: _22  and  _23
REMARK    8  A    between atoms: _26  and  _28
REMARK    9  A    between atoms: _28  and  _29
REMARK   10  A    between atoms: _32  and  _34
REMARK   11  A    between atoms: _34  and  _35
REMARK   12  A    between atoms: _37  and  _39
REMARK   13  A    between atoms: _39  and  _40
REMARK   14  A    between atoms: _39  and  _42
REMARK   15  A    between atoms: _42  and  _43
REMARK   16  A    between atoms: _48  and  _49
REMARK   17  A    between atoms: _51  and  _53
REMARK   18  A    between atoms: _53  and  _54
REMARK   19  A    between atoms: _56  and  _58
REMARK   20  A    between atoms: _58  and  _59
REMARK   21  A    between atoms: _58  and  _61
REMARK   22  A    between atoms: _61  and  _62
REMARK   23  A    between atoms: _65  and  _67
REMARK   24  A    between atoms: _67  and  _68
REMARK   25  A    between atoms: _67  and  _70
REMARK   26  A    between atoms: _70  and  _71
REMARK   27  A    between atoms: _71  and  _72
REMARK   28  A    between atoms: _72  and  _73
REMARK   29  A    between atoms: _83  and  _84
REMARK   30  A    between atoms: _89  and  _91
REMARK   31  A    between atoms: _91  and  _92
REMARK   32  A    between atoms: _91  and  _94
REMARK   33  A    between atoms: _94  and  _95
REMARK   34  A    between atoms: _95  and  _96
REMARK   35  A    between atoms: _96  and  _97
REMARK   36  A    between atoms: _97  and  _98
REMARK   37  A    between atoms: _102  and  _104
REMARK   38  A    between atoms: _104  and  _105
REMARK   39  A    between atoms: _104  and  _107
REMARK   40  A    between atoms: _107  and  _108
REMARK   41  A    between atoms: _108  and  _109
REMARK   42  A    between atoms: _112  and  _114
REMARK   43  A    between atoms: _114  and  _115
REMARK   44  A    between atoms: _114  and  _117
REMARK   45  A    between atoms: _117  and  _118
REMARK   46  A    between atoms: _121  and  _123
REMARK   47  A    between atoms: _123  and  _124
REMARK   48  A    between atoms: _123  and  _126
REMARK   49  A    between atoms: _129  and  _131
REMARK   50  A    between atoms: _131  and  _132
REMARK   51  A    between atoms: _131  and  _134
REMARK   52  A    between atoms: _134  and  _135
REMARK   53  A    between atoms: _138  and  _140
REMARK   54  A    between atoms: _140  and  _141
REMARK   55  A    between atoms: _143  and  _145
REMARK   56  A    between atoms: _145  and  _146
REMARK   57  A    between atoms: _145  and  _148
REMARK   58  A    between atoms: _148  and  _149
REMARK   59  A    between atoms: _149  and  _150
REMARK   60  A    between atoms: _155  and  _157
REMARK   61  A    between atoms: _157  and  _158
REMARK   62  A    between atoms: _157  and  _160
REMARK   63  A    between atoms: _160  and  _161
REMARK   64  A    between atoms: _161  and  _162
REMARK   65  A    between atoms: _167  and  _169
REMARK   66  A    between atoms: _169  and  _170
REMARK   67  A    between atoms: _169  and  _172
REMARK   68  A    between atoms: _172  and  _173
REMARK   69  A    between atoms: _173  and  _174
REMARK   70  A    between atoms: _176  and  _178
REMARK   71  A    between atoms: _178  and  _179
REMARK   72  A    between atoms: _178  and  _181
REMARK   73  A    between atoms: _181  and  _182
REMARK   74  A    between atoms: _182  and  _183
REMARK   75  A    between atoms: _183  and  _184
REMARK   76  A    between atoms: _184  and  _185
REMARK   77  A    between atoms: _189  and  _191
REMARK   78  A    between atoms: _191  and  _192
REMARK   79  A    between atoms: _194  and  _196
REMARK   80  A    between atoms: _196  and  _197
REMARK   81  A    between atoms: _196  and  _199
REMARK   82  A    between atoms: _199  and  _200
REMARK   83  A    between atoms: _203  and  _205
REMARK   84  A    between atoms: _205  and  _206
REMARK   85  A    between atoms: _208  and  _210
REMARK   86  A    between atoms: _210  and  _211
REMARK   87  A    between atoms: _210  and  _213
REMARK   88  A    between atoms: _213  and  _214
REMARK   89  A    between atoms: _219  and  _221
REMARK   90  A    between atoms: _221  and  _222
REMARK   91  A    between atoms: _225  and  _227
REMARK   92  A    between atoms: _227  and  _228
REMARK   93  A    between atoms: _227  and  _230
REMARK   94  A    between atoms: _230  and  _231
REMARK   95  A    between atoms: _234  and  _236
REMARK   96  A    between atoms: _236  and  _237
REMARK   97  A    between atoms: _236  and  _239
REMARK   98  A    between atoms: _239  and  _240
REMARK   99  A    between atoms: _243  and  _245
REMARK  100  A    between atoms: _245  and  _246
REMARK  101  A    between atoms: _245  and  _248
REMARK  102  A    between atoms: _251  and  _253
REMARK  103  A    between atoms: _253  and  _254
REMARK  104  A    between atoms: _253  and  _256
REMARK  105  A    between atoms: _256  and  _257
REMARK  106  A    between atoms: _260  and  _262
REMARK  107  A    between atoms: _262  and  _263
REMARK  108  A    between atoms: _262  and  _265
REMARK  109  A    between atoms: _265  and  _266
REMARK  110  A    between atoms: _269  and  _271
REMARK  111  A    between atoms: _271  and  _272
REMARK  112  A    between atoms: _275  and  _277
REMARK  113  A    between atoms: _277  and  _278
REMARK  114  A    between atoms: _277  and  _280
REMARK  115  A    between atoms: _280  and  _281
REMARK  116  A    between atoms: _281  and  _282
REMARK  117  A    between atoms: _282  and  MG_647
REMARK  118  A    between atoms: _284  and  _286
REMARK  119  A    between atoms: _286  and  _287
REMARK  120  A    between atoms: _286  and  _289
REMARK  121  A    between atoms: _289  and  _290
REMARK  122  A    between atoms: _293  and  _295
REMARK  123  A    between atoms: _295  and  _296
REMARK  124  A    between atoms: _295  and  _298
REMARK  125  A    between atoms: _298  and  _299
REMARK  126  A    between atoms: _302  and  _304
REMARK  127  A    between atoms: _304  and  _305
REMARK  128  A    between atoms: _304  and  _307
REMARK  129  A    between atoms: _310  and  _312
REMARK  130  A    between atoms: _312  and  _313
REMARK  131  A    between atoms: _316  and  _318
REMARK  132  A    between atoms: _318  and  _319
REMARK  133  A    between atoms: _318  and  _321
REMARK  134  A    between atoms: _321  and  _322
REMARK  135  A    between atoms: _325  and  _327
REMARK  136  A    between atoms: _327  and  _328
REMARK  137  A    between atoms: _327  and  _330
REMARK  138  A    between atoms: _330  and  _331
REMARK  139  A    between atoms: _331  and  _332
REMARK  140  A    between atoms: _335  and  _337
REMARK  141  A    between atoms: _337  and  _338
REMARK  142  A    between atoms: _337  and  _340
REMARK  143  A    between atoms: _340  and  _341
REMARK  144  A    between atoms: _341  and  _342
REMARK  145  A    between atoms: _345  and  _347
REMARK  146  A    between atoms: _347  and  _348
REMARK  147  A    between atoms: _347  and  _350
REMARK  148  A    between atoms: _353  and  _355
REMARK  149  A    between atoms: _355  and  _356
REMARK  150  A    between atoms: _355  and  _358
REMARK  151  A    between atoms: _358  and  _359
REMARK  152  A    between atoms: _361  and  _363
REMARK  153  A    between atoms: _363  and  _364
REMARK  154  A    between atoms: _363  and  _366
REMARK  155  A    between atoms: _366  and  _367
REMARK  156  A    between atoms: _367  and  _368
REMARK  157  A    between atoms: _368  and  _369
REMARK  158  A    between atoms: _369  and  _370
REMARK  159  A    between atoms: _374  and  _376
REMARK  160  A    between atoms: _376  and  _377
REMARK  161  A    between atoms: _376  and  _379
REMARK  162  A    between atoms: _379  and  _380
REMARK  163  A    between atoms: _385  and  _386
REMARK  164  A    between atoms: _388  and  _390
REMARK  165  A    between atoms: _390  and  _391
REMARK  166  A    between atoms: _393  and  _395
REMARK  167  A    between atoms: _395  and  _396
REMARK  168  A    between atoms: _395  and  _398
REMARK  169  A    between atoms: _401  and  _403
REMARK  170  A    between atoms: _403  and  _404
REMARK  171  A    between atoms: _403  and  _406
REMARK  172  A    between atoms: _406  and  _407
REMARK  173  A    between atoms: _407  and  _408
REMARK  174  A    between atoms: _410  and  _412
REMARK  175  A    between atoms: _412  and  _413
REMARK  176  A    between atoms: _412  and  _415
REMARK  177  A    between atoms: _418  and  _420
REMARK  178  A    between atoms: _420  and  _421
REMARK  179  A    between atoms: _420  and  _423
REMARK  180  A    between atoms: _423  and  _424
REMARK  181  A    between atoms: _424  and  _425
REMARK  182  A    between atoms: _428  and  _430
REMARK  183  A    between atoms: _430  and  _431
REMARK  184  A    between atoms: _430  and  _433
REMARK  185  A    between atoms: _433  and  _434
REMARK  186  A    between atoms: _434  and  _435
REMARK  187  A    between atoms: _435  and  _436
REMARK  188  A    between atoms: _436  and  _437
REMARK  189  A    between atoms: _441  and  _443
REMARK  190  A    between atoms: _443  and  _444
REMARK  191  A    between atoms: _443  and  _446
REMARK  192  A    between atoms: _446  and  _447
REMARK  193  A    between atoms: _450  and  _452
REMARK  194  A    between atoms: _452  and  _453
REMARK  195  A    between atoms: _456  and  _458
REMARK  196  A    between atoms: _458  and  _459
REMARK  197  A    between atoms: _458  and  _461
REMARK  198  A    between atoms: _464  and  _466
REMARK  199  A    between atoms: _466  and  _467
REMARK  200  A    between atoms: _466  and  _469
REMARK  201  A    between atoms: _469  and  _470
REMARK  202  A    between atoms: _473  and  _475
REMARK  203  A    between atoms: _475  and  _476
REMARK  204  A    between atoms: _478  and  _480
REMARK  205  A    between atoms: _480  and  _481
REMARK  206  A    between atoms: _480  and  _483
REMARK  207  A    between atoms: _483  and  _484
REMARK  208  A    between atoms: _484  and  _485
REMARK  209  A    between atoms: _485  and  _486
REMARK  210  A    between atoms: _495  and  _497
REMARK  211  A    between atoms: _497  and  _498
REMARK  212  A    between atoms: _497  and  _500
REMARK  213  A    between atoms: _500  and  _501
REMARK  214  A    between atoms: _506  and  _507
REMARK  215  A    between atoms: _509  and  _511
REMARK  216  A    between atoms: _511  and  _512
REMARK  217  A    between atoms: _511  and  _514
REMARK  218  A    between atoms: _514  and  _515
REMARK  219  A    between atoms: _520  and  _522
REMARK  220  A    between atoms: _522  and  _523
REMARK  221  A    between atoms: _522  and  _525
REMARK  222  A    between atoms: _525  and  _526
REMARK  223  A    between atoms: _526  and  _527
REMARK  224  A    between atoms: _530  and  _532
REMARK  225  A    between atoms: _532  and  _533
REMARK  226  A    between atoms: _532  and  _535
REMARK  227  A    between atoms: _535  and  _536
REMARK  228  A    between atoms: _539  and  _541
REMARK  229  A    between atoms: _541  and  _542
REMARK  230  A    between atoms: _541  and  _544
REMARK  231  A    between atoms: _544  and  _545
REMARK  232  A    between atoms: _545  and  _546
REMARK  233  A    between atoms: _551  and  _553
REMARK  234  A    between atoms: _553  and  _554
REMARK  235  A    between atoms: _553  and  _556
REMARK  236  A    between atoms: _556  and  _557
REMARK  237  A    between atoms: _560  and  _562
REMARK  238  A    between atoms: _562  and  _563
REMARK  239  A    between atoms: _562  and  _565
REMARK  240  A    between atoms: _565  and  _566
REMARK  241  A    between atoms: _569  and  _571
REMARK  242  A    between atoms: _571  and  _572
REMARK  243  A    between atoms: _571  and  _574
REMARK  244  A    between atoms: _574  and  _575
REMARK  245  A    between atoms: _578  and  _580
REMARK  246  A    between atoms: _580  and  _581
REMARK  247  A    between atoms: _580  and  _583
REMARK  248  A    between atoms: _583  and  _584
REMARK  249  A    between atoms: _587  and  _589
REMARK  250  A    between atoms: _589  and  _590
REMARK  251  A    between atoms: _589  and  _592
REMARK  252  A    between atoms: _592  and  _593
REMARK  253  A    between atoms: _593  and  _594
REMARK  254  A    between atoms: _594  and  _595
REMARK  255  A    between atoms: _604  and  _606
REMARK  256  A    between atoms: _606  and  _607
REMARK  257  A    between atoms: _606  and  _609
REMARK  258  A    between atoms: _609  and  _610
REMARK  259  A    between atoms: _615  and  _616
REMARK  260  A    between atoms: _618  and  _620
REMARK  261  A    between atoms: _620  and  _621
REMARK  262  A    between atoms: _620  and  _623
REMARK  263  A    between atoms: _623  and  _624
REMARK  264  A    between atoms: _627  and  _629
REMARK  265  A    between atoms: _629  and  _630
REMARK  266  A    between atoms: _629  and  _632
REMARK  267  A    between atoms: _634  and  _636
REMARK  268  A    between atoms: _636  and  _637
REMARK  269  A    between atoms: _639  and  _641
REMARK  270  A    between atoms: _641  and  _642
REMARK  271  A    between atoms: _641  and  _644
REMARK  272  A    between atoms: _644  and  _645
REMARK                            x       y       z     vdW  Elec       q    Type
REMARK                         _______ _______ _______ _____ _____    ______ ____
ROOT
ATOM      1  CA  THR A   2      64.741  30.210  53.178  0.00  0.00    +0.176 C 
ENDROOT
BRANCH   1   4
ATOM      2  C   VAL A   1      65.162  31.158  55.391  0.00  0.00    +0.238 C 
ATOM      3  O   VAL A   1      65.075  32.327  54.990  0.00  0.00    -0.274 OA
ATOM      4  N   THR A   2      64.998  30.096  54.607  0.00  0.00    -0.295 N 
ATOM      5  H   THR A   2      65.056  29.148  55.031  0.00  0.00    +0.150 HD
BRANCH   2   6
ATOM      6  CA  VAL A   1      65.479  30.861  56.852  0.00  0.00    +0.145 C 
BRANCH   6   7
ATOM      7  CB  VAL A   1      64.373  31.464  57.742  0.00  0.00    +0.025 C 
ATOM      8  CG2 VAL A   1      64.758  31.340  59.201  0.00  0.00    +0.002 C 
ATOM      9  CG1 VAL A   1      63.053  30.744  57.483  0.00  0.00    +0.002 C 
ENDBRANCH   6   7
BRANCH   6  10
ATOM     10  N   VAL A   1      66.787  31.470  57.084  0.00  0.00    -0.238 NA
ATOM     11  H   VAL A   1      66.851  32.486  57.295  0.00  0.00    +0.142 HD
ENDBRANCH   6  10
ENDBRANCH   2   6
ENDBRANCH   1   4
BRANCH   1  12
ATOM     12  C   THR A   2      63.313  29.958  52.718  0.00  0.00    +0.243 C 
ATOM     13  O   THR A   2      62.473  29.400  53.429  0.00  0.00    -0.273 OA
ATOM     14  N   GLY A   3      63.066  30.383  51.489  0.00  0.00    -0.296 N 
ATOM     15  H   GLY A   3      63.816  30.874  50.962  0.00  0.00    +0.150 HD
BRANCH  14  16
ATOM     16  CA  GLY A   3      61.783  30.183  50.862  0.00  0.00    +0.163 C 
BRANCH  16  17
ATOM     17  C   GLY A   3      62.099  29.488  49.551  0.00  0.00    +0.229 C 
ATOM     18  O   GLY A   3      63.033  28.687  49.473  0.00  0.00    -0.286 OA
ENDBRANCH  16  17
ENDBRANCH  14  16
ENDBRANCH   1  12
BRANCH   1  19
ATOM     19  CB  THR A   2      65.617  29.226  52.395  0.00  0.00    +0.137 C 
ATOM     20  CG2 THR A   2      67.101  29.548  52.568  0.00  0.00    +0.034 C 
BRANCH  19  21
ATOM     21  OG1 THR A   2      65.360  27.900  52.878  0.00  0.00    -0.382 OA
ATOM     22  HG1 THR A   2      65.579  27.853  53.842  0.00  0.00    +0.210 HD
ENDBRANCH  19  21
ENDBRANCH   1  19
TORSDOF 9
REMARK  Name = ../refined-set-2016/3juk/3juk_pocket.pdb
REMARK  272 active torsions:
REMARK  status: ('A' for Active; 'I' for Inactive)
REMARK    1  A    between atoms: _1  and  _3
REMARK    2  A    between atoms: _3  and  _4
REMARK    3  A    between atoms: _3  and  _6
REMARK    4  A    between atoms: _6  and  _7
REMARK    5  A    between atoms: _14  and  _15
REMARK    6  A    between atoms: _20  and  _22
REMARK    7  A    between atoms: _22  and  _23
REMARK    8  A    between atoms: _26  and  _28
REMARK    9  A    between atoms: _28  and  _29
REMARK   10  A    between atoms: _32  and  _34
REMARK   11  A    between atoms: _34  and  _35
REMARK   12  A    between atoms: _37  and  _39
REMARK   13  A    between atoms: _39  and  _40
REMARK   14  A    between atoms: _39  and  _42
REMARK   15  A    between atoms: _42  and  _43
REMARK   16  A    between atoms: _48  and  _49
REMARK   17  A    between atoms: _51  and  _53
REMARK   18  A    between atoms: _53  and  _54
REMARK   19  A    between atoms: _56  and  _58
REMARK   20  A    between atoms: _58  and  _59
REMARK   21  A    between atoms: _58  and  _61
REMARK   22  A    between atoms: _61  and  _62
REMARK   23  A    between atoms: _65  and  _67
REMARK   24  A    between atoms: _67  and  _68
REMARK   25  A    between atoms: _67  and  _70
REMARK   26  A    between atoms: _70  and  _71
REMARK   27  A    between atoms: _71  and  _72
REMARK   28  A    between atoms: _72  and  _73
REMARK   29  A    between atoms: _83  and  _84
REMARK   30  A    between atoms: _89  and  _91
REMARK   31  A    between atoms: _91  and  _92
REMARK   32  A    between atoms: _91  and  _94
REMARK   33  A    between atoms: _94  and  _95
REMARK   34  A    between atoms: _95  and  _96
REMARK   35  A    between atoms: _96  and  _97
REMARK   36  A    between atoms: _97  and  _98
REMARK   37  A    between atoms: _102  and  _104
REMARK   38  A    between atoms: _104  and  _105
REMARK   39  A    between atoms: _104  and  _107
REMARK   40  A    between atoms: _107  and  _108
REMARK   41  A    between atoms: _108  and  _109
REMARK   42  A    between atoms: _112  and  _114
REMARK   43  A    between atoms: _114  and  _115
REMARK   44  A    between atoms: _114  and  _117
REMARK   45  A    between atoms: _117  and  _118
REMARK   46  A    between atoms: _121  and  _123
REMARK   47  A    between atoms: _123  and  _124
REMARK   48  A    between atoms: _123  and  _126
REMARK   49  A    between atoms: _129  and  _131
REMARK   50  A    between atoms: _131  and  _132
REMARK   51  A    between atoms: _131  and  _134
REMARK   52  A    between atoms: _134  and  _135
REMARK   53  A    between atoms: _138  and  _140
REMARK   54  A    between atoms: _140  and  _141
REMARK   55  A    between atoms: _143  and  _145
REMARK   56  A    between atoms: _145  and  _146
REMARK   57  A    between atoms: _145  and  _148
REMARK   58  A    between atoms: _148  and  _149
REMARK   59  A    between atoms: _149  and  _150
REMARK   60  A    between atoms: _155  and  _157
REMARK   61  A    between atoms: _157  and  _158
REMARK   62  A    between atoms: _157  and  _160
REMARK   63  A    between atoms: _160  and  _161
REMARK   64  A    between atoms: _161  and  _162
REMARK   65  A    between atoms: _167  and  _169
REMARK   66  A    between atoms: _169  and  _170
REMARK   67  A    between atoms: _169  and  _172
REMARK   68  A    between atoms: _172  and  _173
REMARK   69  A    between atoms: _173  and  _174
REMARK   70  A    between atoms: _176  and  _178
REMARK   71  A    between atoms: _178  and  _179
REMARK   72  A    between atoms: _178  and  _181
REMARK   73  A    between atoms: _181  and  _182
REMARK   74  A    between atoms: _182  and  _183
REMARK   75  A    between atoms: _183  and  _184
REMARK   76  A    between atoms: _184  and  _185
REMARK   77  A    between atoms: _189  and  _191
REMARK   78  A    between atoms: _191  and  _192
REMARK   79  A    between atoms: _194  and  _196
REMARK   80  A    between atoms: _196  and  _197
REMARK   81  A    between atoms: _196  and  _199
REMARK   82  A    between atoms: _199  and  _200
REMARK   83  A    between atoms: _203  and  _205
REMARK   84  A    between atoms: _205  and  _206
REMARK   85  A    between atoms: _208  and  _210
REMARK   86  A    between atoms: _210  and  _211
REMARK   87  A    between atoms: _210  and  _213
REMARK   88  A    between atoms: _213  and  _214
REMARK   89  A    between atoms: _219  and  _221
REMARK   90  A    between atoms: _221  and  _222
REMARK   91  A    between atoms: _225  and  _227
REMARK   92  A    between atoms: _227  and  _228
REMARK   93  A    between atoms: _227  and  _230
REMARK   94  A    between atoms: _230  and  _231
REMARK   95  A    between atoms: _234  and  _236
REMARK   96  A    between atoms: _236  and  _237
REMARK   97  A    between atoms: _236  and  _239
REMARK   98  A    between atoms: _239  and  _240
REMARK   99  A    between atoms: _243  and  _245
REMARK  100  A    between atoms: _245  and  _246
REMARK  101  A    between atoms: _245  and  _248
REMARK  102  A    between atoms: _251  and  _253
REMARK  103  A    between atoms: _253  and  _254
REMARK  104  A    between atoms: _253  and  _256
REMARK  105  A    between atoms: _256  and  _257
REMARK  106  A    between atoms: _260  and  _262
REMARK  107  A    between atoms: _262  and  _263
REMARK  108  A    between atoms: _262  and  _265
REMARK  109  A    between atoms: _265  and  _266
REMARK  110  A    between atoms: _269  and  _271
REMARK  111  A    between atoms: _271  and  _272
REMARK  112  A    between atoms: _275  and  _277
REMARK  113  A    between atoms: _277  and  _278
REMARK  114  A    between atoms: _277  and  _280
REMARK  115  A    between atoms: _280  and  _281
REMARK  116  A    between atoms: _281  and  _282
REMARK  117  A    between atoms: _282  and  MG_647
REMARK  118  A    between atoms: _284  and  _286
REMARK  119  A    between atoms: _286  and  _287
REMARK  120  A    between atoms: _286  and  _289
REMARK  121  A    between atoms: _289  and  _290
REMARK  122  A    between atoms: _293  and  _295
REMARK  123  A    between atoms: _295  and  _296
REMARK  124  A    between atoms: _295  and  _298
REMARK  125  A    between atoms: _298  and  _299
REMARK  126  A    between atoms: _302  and  _304
REMARK  127  A    between atoms: _304  and  _305
REMARK  128  A    between atoms: _304  and  _307
REMARK  129  A    between atoms: _310  and  _312
REMARK  130  A    between atoms: _312  and  _313
REMARK  131  A    between atoms: _316  and  _318
REMARK  132  A    between atoms: _318  and  _319
REMARK  133  A    between atoms: _318  and  _321
REMARK  134  A    between atoms: _321  and  _322
REMARK  135  A    between atoms: _325  and  _327
REMARK  136  A    between atoms: _327  and  _328
REMARK  137  A    between atoms: _327  and  _330
REMARK  138  A    between atoms: _330  and  _331
REMARK  139  A    between atoms: _331  and  _332
REMARK  140  A    between atoms: _335  and  _337
REMARK  141  A    between atoms: _337  and  _338
REMARK  142  A    between atoms: _337  and  _340
REMARK  143  A    between atoms: _340  and  _341
REMARK  144  A    between atoms: _341  and  _342
REMARK  145  A    between atoms: _345  and  _347
REMARK  146  A    between atoms: _347  and  _348
REMARK  147  A    between atoms: _347  and  _350
REMARK  148  A    between atoms: _353  and  _355
REMARK  149  A    between atoms: _355  and  _356
REMARK  150  A    between atoms: _355  and  _358
REMARK  151  A    between atoms: _358  and  _359
REMARK  152  A    between atoms: _361  and  _363
REMARK  153  A    between atoms: _363  and  _364
REMARK  154  A    between atoms: _363  and  _366
REMARK  155  A    between atoms: _366  and  _367
REMARK  156  A    between atoms: _367  and  _368
REMARK  157  A    between atoms: _368  and  _369
REMARK  158  A    between atoms: _369  and  _370
REMARK  159  A    between atoms: _374  and  _376
REMARK  160  A    between atoms: _376  and  _377
REMARK  161  A    between atoms: _376  and  _379
REMARK  162  A    between atoms: _379  and  _380
REMARK  163  A    between atoms: _385  and  _386
REMARK  164  A    between atoms: _388  and  _390
REMARK  165  A    between atoms: _390  and  _391
REMARK  166  A    between atoms: _393  and  _395
REMARK  167  A    between atoms: _395  and  _396
REMARK  168  A    between atoms: _395  and  _398
REMARK  169  A    between atoms: _401  and  _403
REMARK  170  A    between atoms: _403  and  _404
REMARK  171  A    between atoms: _403  and  _406
REMARK  172  A    between atoms: _406  and  _407
REMARK  173  A    between atoms: _407  and  _408
REMARK  174  A    between atoms: _410  and  _412
REMARK  175  A    between atoms: _412  and  _413
REMARK  176  A    between atoms: _412  and  _415
REMARK  177  A    between atoms: _418  and  _420
REMARK  178  A    between atoms: _420  and  _421
REMARK  179  A    between atoms: _420  and  _423
REMARK  180  A    between atoms: _423  and  _424
REMARK  181  A    between atoms: _424  and  _425
REMARK  182  A    between atoms: _428  and  _430
REMARK  183  A    between atoms: _430  and  _431
REMARK  184  A    between atoms: _430  and  _433
REMARK  185  A    between atoms: _433  and  _434
REMARK  186  A    between atoms: _434  and  _435
REMARK  187  A    between atoms: _435  and  _436
REMARK  188  A    between atoms: _436  and  _437
REMARK  189  A    between atoms: _441  and  _443
REMARK  190  A    between atoms: _443  and  _444
REMARK  191  A    between atoms: _443  and  _446
REMARK  192  A    between atoms: _446  and  _447
REMARK  193  A    between atoms: _450  and  _452
REMARK  194  A    between atoms: _452  and  _453
REMARK  195  A    between atoms: _456  and  _458
REMARK  196  A    between atoms: _458  and  _459
REMARK  197  A    between atoms: _458  and  _461
REMARK  198  A    between atoms: _464  and  _466
REMARK  199  A    between atoms: _466  and  _467
REMARK  200  A    between atoms: _466  and  _469
REMARK  201  A    between atoms: _469  and  _470
REMARK  202  A    between atoms: _473  and  _475
REMARK  203  A    between atoms: _475  and  _476
REMARK  204  A    between atoms: _478  and  _480
REMARK  205  A    between atoms: _480  and  _481
REMARK  206  A    between atoms: _480  and  _483
REMARK  207  A    between atoms: _483  and  _484
REMARK  208  A    between atoms: _484  and  _485
REMARK  209  A    between atoms: _485  and  _486
REMARK  210  A    between atoms: _495  and  _497
REMARK  211  A    between atoms: _497  and  _498
REMARK  212  A    between atoms: _497  and  _500
REMARK  213  A    between atoms: _500  and  _501
REMARK  214  A    between atoms: _506  and  _507
REMARK  215  A    between atoms: _509  and  _511
REMARK  216  A    between atoms: _511  and  _512
REMARK  217  A    between atoms: _511  and  _514
REMARK  218  A    between atoms: _514  and  _515
REMARK  219  A    between atoms: _520  and  _522
REMARK  220  A    between atoms: _522  and  _523
REMARK  221  A    between atoms: _522  and  _525
REMARK  222  A    between atoms: _525  and  _526
REMARK  223  A    between atoms: _526  and  _527
REMARK  224  A    between atoms: _530  and  _532
REMARK  225  A    between atoms: _532  and  _533
REMARK  226  A    between atoms: _532  and  _535
REMARK  227  A    between atoms: _535  and  _536
REMARK  228  A    between atoms: _539  and  _541
REMARK  229  A    between atoms: _541  and  _542
REMARK  230  A    between atoms: _541  and  _544
REMARK  231  A    between atoms: _544  and  _545
REMARK  232  A    between atoms: _545  and  _546
REMARK  233  A    between atoms: _551  and  _553
REMARK  234  A    between atoms: _553  and  _554
REMARK  235  A    between atoms: _553  and  _556
REMARK  236  A    between atoms: _556  and  _557
REMARK  237  A    between atoms: _560  and  _562
REMARK  238  A    between atoms: _562  and  _563
REMARK  239  A    between atoms: _562  and  _565
REMARK  240  A    between atoms: _565  and  _566
REMARK  241  A    between atoms: _569  and  _571
REMARK  242  A    between atoms: _571  and  _572
REMARK  243  A    between atoms: _571  and  _574
REMARK  244  A    between atoms: _574  and  _575
REMARK  245  A    between atoms: _578  and  _580
REMARK  246  A    between atoms: _580  and  _581
REMARK  247  A    between atoms: _580  and  _583
REMARK  248  A    between atoms: _583  and  _584
REMARK  249  A    between atoms: _587  and  _589
REMARK  250  A    between atoms: _589  and  _590
REMARK  251  A    between atoms: _589  and  _592
REMARK  252  A    between atoms: _592  and  _593
REMARK  253  A    between atoms: _593  and  _594
REMARK  254  A    between atoms: _594  and  _595
REMARK  255  A    between atoms: _604  and  _606
REMARK  256  A    between atoms: _606  and  _607
REMARK  257  A    between atoms: _606  and  _609
REMARK  258  A    between atoms: _609  and  _610
REMARK  259  A    between atoms: _615  and  _616
REMARK  260  A    between atoms: _618  and  _620
REMARK  261  A    between atoms: _620  and  _621
REMARK  262  A    between atoms: _620  and  _623
REMARK  263  A    between atoms: _623  and  _624
REMARK  264  A    between atoms: _627  and  _629
REMARK  265  A    between atoms: _629  and  _630
REMARK  266  A    between atoms: _629  and  _632
REMARK  267  A    between atoms: _634  and  _636
REMARK  268  A    between atoms: _636  and  _637
REMARK  269  A    between atoms: _639  and  _641
REMARK  270  A    between atoms: _641  and  _642
REMARK  271  A    between atoms: _641  and  _644
REMARK  272  A    between atoms: _644  and  _645
REMARK                            x       y       z     vdW  Elec       q    Type
REMARK                         _______ _______ _______ _____ _____    ______ ____
ROOT
ATOM      1  CB  GLN A   1      59.616  29.820  55.981  0.00  0.00    +0.035 C 
ENDROOT
BRANCH   1   2
ATOM      2  CA  GLN A   1      59.805  28.311  55.928  0.00  0.00    +0.134 C 
BRANCH   2   3
ATOM      3  N   GLN A   1      61.095  27.931  55.383  0.00  0.00    -0.239 NA
ATOM      4  H   GLN A   1      61.700  28.633  54.911  0.00  0.00    +0.142 HD
ENDBRANCH   2   3
BRANCH   2   5
ATOM      5  C   GLN A   1      58.852  27.736  54.898  0.00  0.00    +0.224 C 
ATOM      6  O   GLN A   1      58.733  28.276  53.802  0.00  0.00    -0.287 OA
ENDBRANCH   2   5
ENDBRANCH   1   2
BRANCH   1   7
ATOM      7  CG  GLN A   1      58.243  30.197  56.543  0.00  0.00    +0.087 C 
BRANCH   7   8
ATOM      8  CD  GLN A   1      57.970  31.692  56.544  0.00  0.00    +0.219 C 
ATOM      9  OE1 GLN A   1      57.060  32.161  57.230  0.00  0.00    -0.275 OA
ATOM     10  NE2 GLN A   1      58.749  32.444  55.778  0.00  0.00    -0.329 N 
ATOM     11 HE21 GLN A   1      58.603  33.473  55.740  0.00  0.00    +0.145 HD
ATOM     12 HE22 GLN A   1      59.505  32.005  55.215  0.00  0.00    +0.145 HD
ENDBRANCH   7   8
ENDBRANCH   1   7
TORSDOF 5
REMARK  Name = ../refined-set-2016/3juk/3juk_pocket.pdb
REMARK  272 active torsions:
REMARK  status: ('A' for Active; 'I' for Inactive)
REMARK    1  A    between atoms: _1  and  _3
REMARK    2  A    between atoms: _3  and  _4
REMARK    3  A    between atoms: _3  and  _6
REMARK    4  A    between atoms: _6  and  _7
REMARK    5  A    between atoms: _14  and  _15
REMARK    6  A    between atoms: _20  and  _22
REMARK    7  A    between atoms: _22  and  _23
REMARK    8  A    between atoms: _26  and  _28
REMARK    9  A    between atoms: _28  and  _29
REMARK   10  A    between atoms: _32  and  _34
REMARK   11  A    between atoms: _34  and  _35
REMARK   12  A    between atoms: _37  and  _39
REMARK   13  A    between atoms: _39  and  _40
REMARK   14  A    between atoms: _39  and  _42
REMARK   15  A    between atoms: _42  and  _43
REMARK   16  A    between atoms: _48  and  _49
REMARK   17  A    between atoms: _51  and  _53
REMARK   18  A    between atoms: _53  and  _54
REMARK   19  A    between atoms: _56  and  _58
REMARK   20  A    between atoms: _58  and  _59
REMARK   21  A    between atoms: _58  and  _61
REMARK   22  A    between atoms: _61  and  _62
REMARK   23  A    between atoms: _65  and  _67
REMARK   24  A    between atoms: _67  and  _68
REMARK   25  A    between atoms: _67  and  _70
REMARK   26  A    between atoms: _70  and  _71
REMARK   27  A    between atoms: _71  and  _72
REMARK   28  A    between atoms: _72  and  _73
REMARK   29  A    between atoms: _83  and  _84
REMARK   30  A    between atoms: _89  and  _91
REMARK   31  A    between atoms: _91  and  _92
REMARK   32  A    between atoms: _91  and  _94
REMARK   33  A    between atoms: _94  and  _95
REMARK   34  A    between atoms: _95  and  _96
REMARK   35  A    between atoms: _96  and  _97
REMARK   36  A    between atoms: _97  and  _98
REMARK   37  A    between atoms: _102  and  _104
REMARK   38  A    between atoms: _104  and  _105
REMARK   39  A    between atoms: _104  and  _107
REMARK   40  A    between atoms: _107  and  _108
REMARK   41  A    between atoms: _108  and  _109
REMARK   42  A    between atoms: _112  and  _114
REMARK   43  A    between atoms: _114  and  _115
REMARK   44  A    between atoms: _114  and  _117
REMARK   45  A    between atoms: _117  and  _118
REMARK   46  A    between atoms: _121  and  _123
REMARK   47  A    between atoms: _123  and  _124
REMARK   48  A    between atoms: _123  and  _126
REMARK   49  A    between atoms: _129  and  _131
REMARK   50  A    between atoms: _131  and  _132
REMARK   51  A    between atoms: _131  and  _134
REMARK   52  A    between atoms: _134  and  _135
REMARK   53  A    between atoms: _138  and  _140
REMARK   54  A    between atoms: _140  and  _141
REMARK   55  A    between atoms: _143  and  _145
REMARK   56  A    between atoms: _145  and  _146
REMARK   57  A    between atoms: _145  and  _148
REMARK   58  A    between atoms: _148  and  _149
REMARK   59  A    between atoms: _149  and  _150
REMARK   60  A    between atoms: _155  and  _157
REMARK   61  A    between atoms: _157  and  _158
REMARK   62  A    between atoms: _157  and  _160
REMARK   63  A    between atoms: _160  and  _161
REMARK   64  A    between atoms: _161  and  _162
REMARK   65  A    between atoms: _167  and  _169
REMARK   66  A    between atoms: _169  and  _170
REMARK   67  A    between atoms: _169  and  _172
REMARK   68  A    between atoms: _172  and  _173
REMARK   69  A    between atoms: _173  and  _174
REMARK   70  A    between atoms: _176  and  _178
REMARK   71  A    between atoms: _178  and  _179
REMARK   72  A    between atoms: _178  and  _181
REMARK   73  A    between atoms: _181  and  _182
REMARK   74  A    between atoms: _182  and  _183
REMARK   75  A    between atoms: _183  and  _184
REMARK   76  A    between atoms: _184  and  _185
REMARK   77  A    between atoms: _189  and  _191
REMARK   78  A    between atoms: _191  and  _192
REMARK   79  A    between atoms: _194  and  _196
REMARK   80  A    between atoms: _196  and  _197
REMARK   81  A    between atoms: _196  and  _199
REMARK   82  A    between atoms: _199  and  _200
REMARK   83  A    between atoms: _203  and  _205
REMARK   84  A    between atoms: _205  and  _206
REMARK   85  A    between atoms: _208  and  _210
REMARK   86  A    between atoms: _210  and  _211
REMARK   87  A    between atoms: _210  and  _213
REMARK   88  A    between atoms: _213  and  _214
REMARK   89  A    between atoms: _219  and  _221
REMARK   90  A    between atoms: _221  and  _222
REMARK   91  A    between atoms: _225  and  _227
REMARK   92  A    between atoms: _227  and  _228
REMARK   93  A    between atoms: _227  and  _230
REMARK   94  A    between atoms: _230  and  _231
REMARK   95  A    between atoms: _234  and  _236
REMARK   96  A    between atoms: _236  and  _237
REMARK   97  A    between atoms: _236  and  _239
REMARK   98  A    between atoms: _239  and  _240
REMARK   99  A    between atoms: _243  and  _245
REMARK  100  A    between atoms: _245  and  _246
REMARK  101  A    between atoms: _245  and  _248
REMARK  102  A    between atoms: _251  and  _253
REMARK  103  A    between atoms: _253  and  _254
REMARK  104  A    between atoms: _253  and  _256
REMARK  105  A    between atoms: _256  and  _257
REMARK  106  A    between atoms: _260  and  _262
REMARK  107  A    between atoms: _262  and  _263
REMARK  108  A    between atoms: _262  and  _265
REMARK  109  A    between atoms: _265  and  _266
REMARK  110  A    between atoms: _269  and  _271
REMARK  111  A    between atoms: _271  and  _272
REMARK  112  A    between atoms: _275  and  _277
REMARK  113  A    between atoms: _277  and  _278
REMARK  114  A    between atoms: _277  and  _280
REMARK  115  A    between atoms: _280  and  _281
REMARK  116  A    between atoms: _281  and  _282
REMARK  117  A    between atoms: _282  and  MG_647
REMARK  118  A    between atoms: _284  and  _286
REMARK  119  A    between atoms: _286  and  _287
REMARK  120  A    between atoms: _286  and  _289
REMARK  121  A    between atoms: _289  and  _290
REMARK  122  A    between atoms: _293  and  _295
REMARK  123  A    between atoms: _295  and  _296
REMARK  124  A    between atoms: _295  and  _298
REMARK  125  A    between atoms: _298  and  _299
REMARK  126  A    between atoms: _302  and  _304
REMARK  127  A    between atoms: _304  and  _305
REMARK  128  A    between atoms: _304  and  _307
REMARK  129  A    between atoms: _310  and  _312
REMARK  130  A    between atoms: _312  and  _313
REMARK  131  A    between atoms: _316  and  _318
REMARK  132  A    between atoms: _318  and  _319
REMARK  133  A    between atoms: _318  and  _321
REMARK  134  A    between atoms: _321  and  _322
REMARK  135  A    between atoms: _325  and  _327
REMARK  136  A    between atoms: _327  and  _328
REMARK  137  A    between atoms: _327  and  _330
REMARK  138  A    between atoms: _330  and  _331
REMARK  139  A    between atoms: _331  and  _332
REMARK  140  A    between atoms: _335  and  _337
REMARK  141  A    between atoms: _337  and  _338
REMARK  142  A    between atoms: _337  and  _340
REMARK  143  A    between atoms: _340  and  _341
REMARK  144  A    between atoms: _341  and  _342
REMARK  145  A    between atoms: _345  and  _347
REMARK  146  A    between atoms: _347  and  _348
REMARK  147  A    between atoms: _347  and  _350
REMARK  148  A    between atoms: _353  and  _355
REMARK  149  A    between atoms: _355  and  _356
REMARK  150  A    between atoms: _355  and  _358
REMARK  151  A    between atoms: _358  and  _359
REMARK  152  A    between atoms: _361  and  _363
REMARK  153  A    between atoms: _363  and  _364
REMARK  154  A    between atoms: _363  and  _366
REMARK  155  A    between atoms: _366  and  _367
REMARK  156  A    between atoms: _367  and  _368
REMARK  157  A    between atoms: _368  and  _369
REMARK  158  A    between atoms: _369  and  _370
REMARK  159  A    between atoms: _374  and  _376
REMARK  160  A    between atoms: _376  and  _377
REMARK  161  A    between atoms: _376  and  _379
REMARK  162  A    between atoms: _379  and  _380
REMARK  163  A    between atoms: _385  and  _386
REMARK  164  A    between atoms: _388  and  _390
REMARK  165  A    between atoms: _390  and  _391
REMARK  166  A    between atoms: _393  and  _395
REMARK  167  A    between atoms: _395  and  _396
REMARK  168  A    between atoms: _395  and  _398
REMARK  169  A    between atoms: _401  and  _403
REMARK  170  A    between atoms: _403  and  _404
REMARK  171  A    between atoms: _403  and  _406
REMARK  172  A    between atoms: _406  and  _407
REMARK  173  A    between atoms: _407  and  _408
REMARK  174  A    between atoms: _410  and  _412
REMARK  175  A    between atoms: _412  and  _413
REMARK  176  A    between atoms: _412  and  _415
REMARK  177  A    between atoms: _418  and  _420
REMARK  178  A    between atoms: _420  and  _421
REMARK  179  A    between atoms: _420  and  _423
REMARK  180  A    between atoms: _423  and  _424
REMARK  181  A    between atoms: _424  and  _425
REMARK  182  A    between atoms: _428  and  _430
REMARK  183  A    between atoms: _430  and  _431
REMARK  184  A    between atoms: _430  and  _433
REMARK  185  A    between atoms: _433  and  _434
REMARK  186  A    between atoms: _434  and  _435
REMARK  187  A    between atoms: _435  and  _436
REMARK  188  A    between atoms: _436  and  _437
REMARK  189  A    between atoms: _441  and  _443
REMARK  190  A    between atoms: _443  and  _444
REMARK  191  A    between atoms: _443  and  _446
REMARK  192  A    between atoms: _446  and  _447
REMARK  193  A    between atoms: _450  and  _452
REMARK  194  A    between atoms: _452  and  _453
REMARK  195  A    between atoms: _456  and  _458
REMARK  196  A    between atoms: _458  and  _459
REMARK  197  A    between atoms: _458  and  _461
REMARK  198  A    between atoms: _464  and  _466
REMARK  199  A    between atoms: _466  and  _467
REMARK  200  A    between atoms: _466  and  _469
REMARK  201  A    between atoms: _469  and  _470
REMARK  202  A    between atoms: _473  and  _475
REMARK  203  A    between atoms: _475  and  _476
REMARK  204  A    between atoms: _478  and  _480
REMARK  205  A    between atoms: _480  and  _481
REMARK  206  A    between atoms: _480  and  _483
REMARK  207  A    between atoms: _483  and  _484
REMARK  208  A    between atoms: _484  and  _485
REMARK  209  A    between atoms: _485  and  _486
REMARK  210  A    between atoms: _495  and  _497
REMARK  211  A    between atoms: _497  and  _498
REMARK  212  A    between atoms: _497  and  _500
REMARK  213  A    between atoms: _500  and  _501
REMARK  214  A    between atoms: _506  and  _507
REMARK  215  A    between atoms: _509  and  _511
REMARK  216  A    between atoms: _511  and  _512
REMARK  217  A    between atoms: _511  and  _514
REMARK  218  A    between atoms: _514  and  _515
REMARK  219  A    between atoms: _520  and  _522
REMARK  220  A    between atoms: _522  and  _523
REMARK  221  A    between atoms: _522  and  _525
REMARK  222  A    between atoms: _525  and  _526
REMARK  223  A    between atoms: _526  and  _527
REMARK  224  A    between atoms: _530  and  _532
REMARK  225  A    between atoms: _532  and  _533
REMARK  226  A    between atoms: _532  and  _535
REMARK  227  A    between atoms: _535  and  _536
REMARK  228  A    between atoms: _539  and  _541
REMARK  229  A    between atoms: _541  and  _542
REMARK  230  A    between atoms: _541  and  _544
REMARK  231  A    between atoms: _544  and  _545
REMARK  232  A    between atoms: _545  and  _546
REMARK  233  A    between atoms: _551  and  _553
REMARK  234  A    between atoms: _553  and  _554
REMARK  235  A    between atoms: _553  and  _556
REMARK  236  A    between atoms: _556  and  _557
REMARK  237  A    between atoms: _560  and  _562
REMARK  238  A    between atoms: _562  and  _563
REMARK  239  A    between atoms: _562  and  _565
REMARK  240  A    between atoms: _565  and  _566
REMARK  241  A    between atoms: _569  and  _571
REMARK  242  A    between atoms: _571  and  _572
REMARK  243  A    between atoms: _571  and  _574
REMARK  244  A    between atoms: _574  and  _575
REMARK  245  A    between atoms: _578  and  _580
REMARK  246  A    between atoms: _580  and  _581
REMARK  247  A    between atoms: _580  and  _583
REMARK  248  A    between atoms: _583  and  _584
REMARK  249  A    between atoms: _587  and  _589
REMARK  250  A    between atoms: _589  and  _590
REMARK  251  A    between atoms: _589  and  _592
REMARK  252  A    between atoms: _592  and  _593
REMARK  253  A    between atoms: _593  and  _594
REMARK  254  A    between atoms: _594  and  _595
REMARK  255  A    between atoms: _604  and  _606
REMARK  256  A    between atoms: _606  and  _607
REMARK  257  A    between atoms: _606  and  _609
REMARK  258  A    between atoms: _609  and  _610
REMARK  259  A    between atoms: _615  and  _616
REMARK  260  A    between atoms: _618  and  _620
REMARK  261  A    between atoms: _620  and  _621
REMARK  262  A    between atoms: _620  and  _623
REMARK  263  A    between atoms: _623  and  _624
REMARK  264  A    between atoms: _627  and  _629
REMARK  265  A    between atoms: _629  and  _630
REMARK  266  A    between atoms: _629  and  _632
REMARK  267  A    between atoms: _634  and  _636
REMARK  268  A    between atoms: _636  and  _637
REMARK  269  A    between atoms: _639  and  _641
REMARK  270  A    between atoms: _641  and  _642
REMARK  271  A    between atoms: _641  and  _644
REMARK  272  A    between atoms: _644  and  _645
REMARK                            x       y       z     vdW  Elec       q    Type
REMARK                         _______ _______ _______ _____ _____    ______ ____
ROOT
ATOM      1  C   GLY A   4      56.325  36.086  59.021  0.00  0.00    +0.243 C 
ATOM      2  O   GLY A   4      56.797  34.979  59.312  0.00  0.00    -0.273 OA
ATOM      3  N   LEU A   5      56.937  37.244  59.274  0.00  0.00    -0.297 N 
ATOM      4  H   LEU A   5      56.461  38.125  58.992  0.00  0.00    +0.150 HD
ENDROOT
BRANCH   3   5
ATOM      5  CA  LEU A   5      58.239  37.339  59.925  0.00  0.00    +0.149 C 
BRANCH   5   6
ATOM      6  C   LEU A   5      58.251  36.580  61.249  0.00  0.00    +0.241 C 
ATOM      7  N   GLY A   6      57.135  36.649  61.969  0.00  0.00    -0.295 N 
ATOM      8  H   GLY A   6      56.325  37.198  61.617  0.00  0.00    +0.150 HD
ATOM      9  O   LEU A   5      59.250  35.949  61.606  0.00  0.00    -0.273 OA
BRANCH   7  10
ATOM     10  CA  GLY A   6      57.043  35.965  63.237  0.00  0.00    +0.176 C 
BRANCH  10  11
ATOM     11  C   GLY A   6      57.159  34.465  63.041  0.00  0.00    +0.243 C 
ATOM     12  O   GLY A   6      57.873  33.796  63.783  0.00  0.00    -0.273 OA
ATOM     13  N   HIS A   7      56.464  33.937  62.038  0.00  0.00    -0.297 N 
ATOM     14  H   HIS A   7      55.889  34.558  61.434  0.00  0.00    +0.150 HD
BRANCH  13  15
ATOM     15  CA  HIS A   7      56.492  32.506  61.768  0.00  0.00    +0.155 C 
BRANCH  15  16
ATOM     16  C   HIS A   7      57.823  32.105  61.142  0.00  0.00    +0.241 C 
ATOM     17  O   HIS A   7      58.256  30.960  61.274  0.00  0.00    -0.273 OA
ATOM     18  N   ALA A   8      58.470  33.051  60.467  0.00  0.00    -0.297 N 
ATOM     19  H   ALA A   8      58.042  33.994  60.371  0.00  0.00    +0.150 HD
BRANCH  18  20
ATOM     20  CA  ALA A   8      59.771  32.788  59.859  0.00  0.00    +0.149 C 
ATOM     21  CB  ALA A   8      60.183  33.957  58.960  0.00  0.00    +0.031 C 
BRANCH  20  22
ATOM     22  C   ALA A   8      60.794  32.590  60.990  0.00  0.00    +0.241 C 
ATOM     23  N   ILE A   9      60.704  33.418  62.028  0.00  0.00    -0.298 N 
ATOM     24  H   ILE A   9      59.976  34.161  62.026  0.00  0.00    +0.150 HD
ATOM     25  O   ALA A   8      61.644  31.699  60.920  0.00  0.00    -0.273 OA
BRANCH  23  26
ATOM     26  CA  ILE A   9      61.607  33.304  63.168  0.00  0.00    +0.137 C 
BRANCH  26  27
ATOM     27  C   ILE A   9      61.269  32.050  64.003  0.00  0.00    +0.227 C 
ATOM     28  O   ILE A   9      62.156  31.398  64.558  0.00  0.00    -0.286 OA
ENDBRANCH  26  27
BRANCH  26  29
ATOM     29  CB  ILE A   9      61.536  34.582  64.046  0.00  0.00    +0.026 C 
ATOM     30  CG2 ILE A   9      62.238  34.368  65.399  0.00  0.00    +0.002 C 
BRANCH  29  31
ATOM     31  CG1 ILE A   9      62.173  35.750  63.287  0.00  0.00    +0.002 C 
ATOM     32  CD1 ILE A   9      61.976  37.111  63.975  0.00  0.00    +0.000 C 
ENDBRANCH  29  31
ENDBRANCH  26  29
ENDBRANCH  23  26
ENDBRANCH  20  22
ENDBRANCH  18  20
ENDBRANCH  15  16
BRANCH  15  33
ATOM     33  CB  HIS A   7      55.323  32.110  60.857  0.00  0.00    +0.076 C 
BRANCH  33  34
ATOM     34  CG  HIS A   7      55.360  30.682  60.409  0.00  0.00    +0.082 A 
ATOM     35  CD2 HIS A   7      54.875  29.555  60.981  0.00  0.00    +0.115 A 
ATOM     36  NE2 HIS A   7      55.217  28.505  60.163  0.00  0.00    -0.221 NA
ATOM     37  CE1 HIS A   7      55.885  28.971  59.124  0.00  0.00    +0.199 A 
ATOM     38  ND1 HIS A   7      55.986  30.283  59.247  0.00  0.00    -0.227 NA
ENDBRANCH  33  34
ENDBRANCH  15  33
ENDBRANCH  13  15
ENDBRANCH  10  11
ENDBRANCH   7  10
ENDBRANCH   5   6
BRANCH   5  39
ATOM     39  CB  LEU A   5      58.601  38.810  60.171  0.00  0.00    +0.029 C 
BRANCH  39  40
ATOM     40  CG  LEU A   5      59.853  39.101  61.017  0.00  0.00    +0.002 C 
ATOM     41  CD2 LEU A   5      60.161  40.600  60.981  0.00  0.00    +0.000 C 
ATOM     42  CD1 LEU A   5      61.042  38.283  60.521  0.00  0.00    +0.000 C 
ENDBRANCH  39  40
ENDBRANCH   5  39
ENDBRANCH   3   5
BRANCH   1  43
ATOM     43  CA  GLY A   4      54.975  36.211  58.340  0.00  0.00    +0.176 C 
BRANCH  43  46
ATOM     44  C   LYS A   3      53.484  34.333  57.996  0.00  0.00    +0.241 C 
ATOM     45  O   LYS A   3      52.843  34.593  59.013  0.00  0.00    -0.273 OA
ATOM     46  N   GLY A   4      54.536  35.045  57.593  0.00  0.00    -0.295 N 
ATOM     47  H   GLY A   4      55.049  34.762  56.733  0.00  0.00    +0.150 HD
BRANCH  44  48
ATOM     48  CA  LYS A   3      53.087  33.144  57.130  0.00  0.00    +0.149 C 
BRANCH  48  50
ATOM     49  C   MET A   2      53.792  33.007  54.815  0.00  0.00    +0.241 C 
ATOM     50  N   LYS A   3      54.066  32.825  56.100  0.00  0.00    -0.297 N 
ATOM     51  H   LYS A   3      54.995  32.448  56.377  0.00  0.00    +0.150 HD
ATOM     52  O   MET A   2      52.713  33.460  54.423  0.00  0.00    -0.273 OA
BRANCH  49  53
ATOM     53  CA  MET A   2      54.896  32.610  53.830  0.00  0.00    +0.149 C 
BRANCH  53  56
ATOM     54  C   GLN A   1      55.026  30.224  54.299  0.00  0.00    +0.238 C 
ATOM     55  O   GLN A   1      55.464  30.420  55.439  0.00  0.00    -0.274 OA
ATOM     56  N   MET A   2      54.729  31.209  53.458  0.00  0.00    -0.297 N 
ATOM     57  H   MET A   2      54.368  30.975  52.511  0.00  0.00    +0.150 HD
BRANCH  54  58
ATOM     58  CA  GLN A   1      54.805  28.804  53.780  0.00  0.00    +0.145 C 
BRANCH  58  59
ATOM     59  N   GLN A   1      55.771  27.881  54.370  0.00  0.00    -0.238 NA
ATOM     60  H   GLN A   1      56.097  28.029  55.347  0.00  0.00    +0.142 HD
ENDBRANCH  58  59
BRANCH  58  61
ATOM     61  CB  GLN A   1      53.377  28.352  54.087  0.00  0.00    +0.036 C 
BRANCH  61  62
ATOM     62  CG  GLN A   1      53.094  26.907  53.718  0.00  0.00    +0.087 C 
BRANCH  62  63
ATOM     63  CD  GLN A   1      51.630  26.559  53.839  0.00  0.00    +0.219 C 
ATOM     64  NE2 GLN A   1      51.269  25.886  54.928  0.00  0.00    -0.329 N 
ATOM     65 HE21 GLN A   1      51.984  25.618  55.634  0.00  0.00    +0.145 HD
ATOM     66 HE22 GLN A   1      50.272  25.628  55.073  0.00  0.00    +0.145 HD
ATOM     67  OE1 GLN A   1      50.825  26.901  52.972  0.00  0.00    -0.275 OA
ENDBRANCH  62  63
ENDBRANCH  61  62
ENDBRANCH  58  61
ENDBRANCH  54  58
ENDBRANCH  53  56
BRANCH  53  68
ATOM     68  CB  MET A   2      54.838  33.486  52.577  0.00  0.00    +0.041 C 
BRANCH  68  69
ATOM     69  CG  MET A   2      55.409  34.882  52.753  0.00  0.00    +0.060 C 
BRANCH  69  70
ATOM     70  SD  MET A   2      54.434  35.904  53.852  0.00  0.00    -0.139 S 
ATOM     71  CE  MET A   2      55.068  37.567  53.427  0.00  0.00    +0.069 C 
ENDBRANCH  69  70
ENDBRANCH  68  69
ENDBRANCH  53  68
ENDBRANCH  49  53
ENDBRANCH  48  50
BRANCH  48  72
ATOM     72  CB  LYS A   3      52.845  31.928  58.018  0.00  0.00    +0.029 C 
BRANCH  72  73
ATOM     73  CG  LYS A   3      52.139  30.761  57.324  0.00  0.00    +0.000 C 
BRANCH  73  74
ATOM     74  CD  LYS A   3      52.109  29.532  58.239  0.00  0.00    -0.024 C 
BRANCH  74  75
ATOM     75  CE  LYS A   3      51.187  28.439  57.722  0.00  0.00    -0.086 C 
BRANCH  75  76
ATOM     76  NZ  LYS A   3      51.111  27.291  58.686  0.00  0.00    +0.380 N 
ATOM     77  HZ1 LYS A   3      50.745  27.630  59.599  0.00  0.00    -0.089 HD
ATOM     78  HZ2 LYS A   3      52.061  26.889  58.820  0.00  0.00    -0.089 HD
ATOM     79  HZ3 LYS A   3      50.475  26.562  58.305  0.00  0.00    -0.089 HD
ENDBRANCH  75  76
ENDBRANCH  74  75
ENDBRANCH  73  74
ENDBRANCH  72  73
ENDBRANCH  48  72
ENDBRANCH  44  48
ENDBRANCH  43  46
ENDBRANCH   1  43
TORSDOF 35
REMARK  Name = ../refined-set-2016/3juk/3juk_pocket.pdb
REMARK  272 active torsions:
REMARK  status: ('A' for Active; 'I' for Inactive)
REMARK    1  A    between atoms: _1  and  _3
REMARK    2  A    between atoms: _3  and  _4
REMARK    3  A    between atoms: _3  and  _6
REMARK    4  A    between atoms: _6  and  _7
REMARK    5  A    between atoms: _14  and  _15
REMARK    6  A    between atoms: _20  and  _22
REMARK    7  A    between atoms: _22  and  _23
REMARK    8  A    between atoms: _26  and  _28
REMARK    9  A    between atoms: _28  and  _29
REMARK   10  A    between atoms: _32  and  _34
REMARK   11  A    between atoms: _34  and  _35
REMARK   12  A    between atoms: _37  and  _39
REMARK   13  A    between atoms: _39  and  _40
REMARK   14  A    between atoms: _39  and  _42
REMARK   15  A    between atoms: _42  and  _43
REMARK   16  A    between atoms: _48  and  _49
REMARK   17  A    between atoms: _51  and  _53
REMARK   18  A    between atoms: _53  and  _54
REMARK   19  A    between atoms: _56  and  _58
REMARK   20  A    between atoms: _58  and  _59
REMARK   21  A    between atoms: _58  and  _61
REMARK   22  A    between atoms: _61  and  _62
REMARK   23  A    between atoms: _65  and  _67
REMARK   24  A    between atoms: _67  and  _68
REMARK   25  A    between atoms: _67  and  _70
REMARK   26  A    between atoms: _70  and  _71
REMARK   27  A    between atoms: _71  and  _72
REMARK   28  A    between atoms: _72  and  _73
REMARK   29  A    between atoms: _83  and  _84
REMARK   30  A    between atoms: _89  and  _91
REMARK   31  A    between atoms: _91  and  _92
REMARK   32  A    between atoms: _91  and  _94
REMARK   33  A    between atoms: _94  and  _95
REMARK   34  A    between atoms: _95  and  _96
REMARK   35  A    between atoms: _96  and  _97
REMARK   36  A    between atoms: _97  and  _98
REMARK   37  A    between atoms: _102  and  _104
REMARK   38  A    between atoms: _104  and  _105
REMARK   39  A    between atoms: _104  and  _107
REMARK   40  A    between atoms: _107  and  _108
REMARK   41  A    between atoms: _108  and  _109
REMARK   42  A    between atoms: _112  and  _114
REMARK   43  A    between atoms: _114  and  _115
REMARK   44  A    between atoms: _114  and  _117
REMARK   45  A    between atoms: _117  and  _118
REMARK   46  A    between atoms: _121  and  _123
REMARK   47  A    between atoms: _123  and  _124
REMARK   48  A    between atoms: _123  and  _126
REMARK   49  A    between atoms: _129  and  _131
REMARK   50  A    between atoms: _131  and  _132
REMARK   51  A    between atoms: _131  and  _134
REMARK   52  A    between atoms: _134  and  _135
REMARK   53  A    between atoms: _138  and  _140
REMARK   54  A    between atoms: _140  and  _141
REMARK   55  A    between atoms: _143  and  _145
REMARK   56  A    between atoms: _145  and  _146
REMARK   57  A    between atoms: _145  and  _148
REMARK   58  A    between atoms: _148  and  _149
REMARK   59  A    between atoms: _149  and  _150
REMARK   60  A    between atoms: _155  and  _157
REMARK   61  A    between atoms: _157  and  _158
REMARK   62  A    between atoms: _157  and  _160
REMARK   63  A    between atoms: _160  and  _161
REMARK   64  A    between atoms: _161  and  _162
REMARK   65  A    between atoms: _167  and  _169
REMARK   66  A    between atoms: _169  and  _170
REMARK   67  A    between atoms: _169  and  _172
REMARK   68  A    between atoms: _172  and  _173
REMARK   69  A    between atoms: _173  and  _174
REMARK   70  A    between atoms: _176  and  _178
REMARK   71  A    between atoms: _178  and  _179
REMARK   72  A    between atoms: _178  and  _181
REMARK   73  A    between atoms: _181  and  _182
REMARK   74  A    between atoms: _182  and  _183
REMARK   75  A    between atoms: _183  and  _184
REMARK   76  A    between atoms: _184  and  _185
REMARK   77  A    between atoms: _189  and  _191
REMARK   78  A    between atoms: _191  and  _192
REMARK   79  A    between atoms: _194  and  _196
REMARK   80  A    between atoms: _196  and  _197
REMARK   81  A    between atoms: _196  and  _199
REMARK   82  A    between atoms: _199  and  _200
REMARK   83  A    between atoms: _203  and  _205
REMARK   84  A    between atoms: _205  and  _206
REMARK   85  A    between atoms: _208  and  _210
REMARK   86  A    between atoms: _210  and  _211
REMARK   87  A    between atoms: _210  and  _213
REMARK   88  A    between atoms: _213  and  _214
REMARK   89  A    between atoms: _219  and  _221
REMARK   90  A    between atoms: _221  and  _222
REMARK   91  A    between atoms: _225  and  _227
REMARK   92  A    between atoms: _227  and  _228
REMARK   93  A    between atoms: _227  and  _230
REMARK   94  A    between atoms: _230  and  _231
REMARK   95  A    between atoms: _234  and  _236
REMARK   96  A    between atoms: _236  and  _237
REMARK   97  A    between atoms: _236  and  _239
REMARK   98  A    between atoms: _239  and  _240
REMARK   99  A    between atoms: _243  and  _245
REMARK  100  A    between atoms: _245  and  _246
REMARK  101  A    between atoms: _245  and  _248
REMARK  102  A    between atoms: _251  and  _253
REMARK  103  A    between atoms: _253  and  _254
REMARK  104  A    between atoms: _253  and  _256
REMARK  105  A    between atoms: _256  and  _257
REMARK  106  A    between atoms: _260  and  _262
REMARK  107  A    between atoms: _262  and  _263
REMARK  108  A    between atoms: _262  and  _265
REMARK  109  A    between atoms: _265  and  _266
REMARK  110  A    between atoms: _269  and  _271
REMARK  111  A    between atoms: _271  and  _272
REMARK  112  A    between atoms: _275  and  _277
REMARK  113  A    between atoms: _277  and  _278
REMARK  114  A    between atoms: _277  and  _280
REMARK  115  A    between atoms: _280  and  _281
REMARK  116  A    between atoms: _281  and  _282
REMARK  117  A    between atoms: _282  and  MG_647
REMARK  118  A    between atoms: _284  and  _286
REMARK  119  A    between atoms: _286  and  _287
REMARK  120  A    between atoms: _286  and  _289
REMARK  121  A    between atoms: _289  and  _290
REMARK  122  A    between atoms: _293  and  _295
REMARK  123  A    between atoms: _295  and  _296
REMARK  124  A    between atoms: _295  and  _298
REMARK  125  A    between atoms: _298  and  _299
REMARK  126  A    between atoms: _302  and  _304
REMARK  127  A    between atoms: _304  and  _305
REMARK  128  A    between atoms: _304  and  _307
REMARK  129  A    between atoms: _310  and  _312
REMARK  130  A    between atoms: _312  and  _313
REMARK  131  A    between atoms: _316  and  _318
REMARK  132  A    between atoms: _318  and  _319
REMARK  133  A    between atoms: _318  and  _321
REMARK  134  A    between atoms: _321  and  _322
REMARK  135  A    between atoms: _325  and  _327
REMARK  136  A    between atoms: _327  and  _328
REMARK  137  A    between atoms: _327  and  _330
REMARK  138  A    between atoms: _330  and  _331
REMARK  139  A    between atoms: _331  and  _332
REMARK  140  A    between atoms: _335  and  _337
REMARK  141  A    between atoms: _337  and  _338
REMARK  142  A    between atoms: _337  and  _340
REMARK  143  A    between atoms: _340  and  _341
REMARK  144  A    between atoms: _341  and  _342
REMARK  145  A    between atoms: _345  and  _347
REMARK  146  A    between atoms: _347  and  _348
REMARK  147  A    between atoms: _347  and  _350
REMARK  148  A    between atoms: _353  and  _355
REMARK  149  A    between atoms: _355  and  _356
REMARK  150  A    between atoms: _355  and  _358
REMARK  151  A    between atoms: _358  and  _359
REMARK  152  A    between atoms: _361  and  _363
REMARK  153  A    between atoms: _363  and  _364
REMARK  154  A    between atoms: _363  and  _366
REMARK  155  A    between atoms: _366  and  _367
REMARK  156  A    between atoms: _367  and  _368
REMARK  157  A    between atoms: _368  and  _369
REMARK  158  A    between atoms: _369  and  _370
REMARK  159  A    between atoms: _374  and  _376
REMARK  160  A    between atoms: _376  and  _377
REMARK  161  A    between atoms: _376  and  _379
REMARK  162  A    between atoms: _379  and  _380
REMARK  163  A    between atoms: _385  and  _386
REMARK  164  A    between atoms: _388  and  _390
REMARK  165  A    between atoms: _390  and  _391
REMARK  166  A    between atoms: _393  and  _395
REMARK  167  A    between atoms: _395  and  _396
REMARK  168  A    between atoms: _395  and  _398
REMARK  169  A    between atoms: _401  and  _403
REMARK  170  A    between atoms: _403  and  _404
REMARK  171  A    between atoms: _403  and  _406
REMARK  172  A    between atoms: _406  and  _407
REMARK  173  A    between atoms: _407  and  _408
REMARK  174  A    between atoms: _410  and  _412
REMARK  175  A    between atoms: _412  and  _413
REMARK  176  A    between atoms: _412  and  _415
REMARK  177  A    between atoms: _418  and  _420
REMARK  178  A    between atoms: _420  and  _421
REMARK  179  A    between atoms: _420  and  _423
REMARK  180  A    between atoms: _423  and  _424
REMARK  181  A    between atoms: _424  and  _425
REMARK  182  A    between atoms: _428  and  _430
REMARK  183  A    between atoms: _430  and  _431
REMARK  184  A    between atoms: _430  and  _433
REMARK  185  A    between atoms: _433  and  _434
REMARK  186  A    between atoms: _434  and  _435
REMARK  187  A    between atoms: _435  and  _436
REMARK  188  A    between atoms: _436  and  _437
REMARK  189  A    between atoms: _441  and  _443
REMARK  190  A    between atoms: _443  and  _444
REMARK  191  A    between atoms: _443  and  _446
REMARK  192  A    between atoms: _446  and  _447
REMARK  193  A    between atoms: _450  and  _452
REMARK  194  A    between atoms: _452  and  _453
REMARK  195  A    between atoms: _456  and  _458
REMARK  196  A    between atoms: _458  and  _459
REMARK  197  A    between atoms: _458  and  _461
REMARK  198  A    between atoms: _464  and  _466
REMARK  199  A    between atoms: _466  and  _467
REMARK  200  A    between atoms: _466  and  _469
REMARK  201  A    between atoms: _469  and  _470
REMARK  202  A    between atoms: _473  and  _475
REMARK  203  A    between atoms: _475  and  _476
REMARK  204  A    between atoms: _478  and  _480
REMARK  205  A    between atoms: _480  and  _481
REMARK  206  A    between atoms: _480  and  _483
REMARK  207  A    between atoms: _483  and  _484
REMARK  208  A    between atoms: _484  and  _485
REMARK  209  A    between atoms: _485  and  _486
REMARK  210  A    between atoms: _495  and  _497
REMARK  211  A    between atoms: _497  and  _498
REMARK  212  A    between atoms: _497  and  _500
REMARK  213  A    between atoms: _500  and  _501
REMARK  214  A    between atoms: _506  and  _507
REMARK  215  A    between atoms: _509  and  _511
REMARK  216  A    between atoms: _511  and  _512
REMARK  217  A    between atoms: _511  and  _514
REMARK  218  A    between atoms: _514  and  _515
REMARK  219  A    between atoms: _520  and  _522
REMARK  220  A    between atoms: _522  and  _523
REMARK  221  A    between atoms: _522  and  _525
REMARK  222  A    between atoms: _525  and  _526
REMARK  223  A    between atoms: _526  and  _527
REMARK  224  A    between atoms: _530  and  _532
REMARK  225  A    between atoms: _532  and  _533
REMARK  226  A    between atoms: _532  and  _535
REMARK  227  A    between atoms: _535  and  _536
REMARK  228  A    between atoms: _539  and  _541
REMARK  229  A    between atoms: _541  and  _542
REMARK  230  A    between atoms: _541  and  _544
REMARK  231  A    between atoms: _544  and  _545
REMARK  232  A    between atoms: _545  and  _546
REMARK  233  A    between atoms: _551  and  _553
REMARK  234  A    between atoms: _553  and  _554
REMARK  235  A    between atoms: _553  and  _556
REMARK  236  A    between atoms: _556  and  _557
REMARK  237  A    between atoms: _560  and  _562
REMARK  238  A    between atoms: _562  and  _563
REMARK  239  A    between atoms: _562  and  _565
REMARK  240  A    between atoms: _565  and  _566
REMARK  241  A    between atoms: _569  and  _571
REMARK  242  A    between atoms: _571  and  _572
REMARK  243  A    between atoms: _571  and  _574
REMARK  244  A    between atoms: _574  and  _575
REMARK  245  A    between atoms: _578  and  _580
REMARK  246  A    between atoms: _580  and  _581
REMARK  247  A    between atoms: _580  and  _583
REMARK  248  A    between atoms: _583  and  _584
REMARK  249  A    between atoms: _587  and  _589
REMARK  250  A    between atoms: _589  and  _590
REMARK  251  A    between atoms: _589  and  _592
REMARK  252  A    between atoms: _592  and  _593
REMARK  253  A    between atoms: _593  and  _594
REMARK  254  A    between atoms: _594  and  _595
REMARK  255  A    between atoms: _604  and  _606
REMARK  256  A    between atoms: _606  and  _607
REMARK  257  A    between atoms: _606  and  _609
REMARK  258  A    between atoms: _609  and  _610
REMARK  259  A    between atoms: _615  and  _616
REMARK  260  A    between atoms: _618  and  _620
REMARK  261  A    between atoms: _620  and  _621
REMARK  262  A    between atoms: _620  and  _623
REMARK  263  A    between atoms: _623  and  _624
REMARK  264  A    between atoms: _627  and  _629
REMARK  265  A    between atoms: _629  and  _630
REMARK  266  A    between atoms: _629  and  _632
REMARK  267  A    between atoms: _634  and  _636
REMARK  268  A    between atoms: _636  and  _637
REMARK  269  A    between atoms: _639  and  _641
REMARK  270  A    between atoms: _641  and  _642
REMARK  271  A    between atoms: _641  and  _644
REMARK  272  A    between atoms: _644  and  _645
REMARK                            x       y       z     vdW  Elec       q    Type
REMARK                         _______ _______ _______ _____ _____    ______ ____
ROOT
ATOM      1  CA  THR A   1      60.547  28.248  61.908  0.00  0.00    +0.160 C 
ENDROOT
BRANCH   1   2
ATOM      2  N   THR A   1      60.031  29.335  62.731  0.00  0.00    -0.237 NA
ATOM      3  H   THR A   1      59.609  30.166  62.270  0.00  0.00    +0.142 HD
ENDBRANCH   1   2
BRANCH   1   4
ATOM      4  C   THR A   1      62.057  28.155  62.169  0.00  0.00    +0.227 C 
ATOM      5  O   THR A   1      62.635  27.068  62.184  0.00  0.00    -0.287 OA
ENDBRANCH   1   4
BRANCH   1   6
ATOM      6  CB  THR A   1      60.338  28.539  60.413  0.00  0.00    +0.134 C 
ATOM      7  CG2 THR A   1      60.940  27.430  59.567  0.00  0.00    +0.034 C 
BRANCH   6   8
ATOM      8  OG1 THR A   1      58.934  28.660  60.140  0.00  0.00    -0.383 OA
ATOM      9  HG1 THR A   1      58.557  29.402  60.677  0.00  0.00    +0.210 HD
ENDBRANCH   6   8
ENDBRANCH   1   6
TORSDOF 4
REMARK  Name = ../refined-set-2016/3juk/3juk_pocket.pdb
REMARK  272 active torsions:
REMARK  status: ('A' for Active; 'I' for Inactive)
REMARK    1  A    between atoms: _1  and  _3
REMARK    2  A    between atoms: _3  and  _4
REMARK    3  A    between atoms: _3  and  _6
REMARK    4  A    between atoms: _6  and  _7
REMARK    5  A    between atoms: _14  and  _15
REMARK    6  A    between atoms: _20  and  _22
REMARK    7  A    between atoms: _22  and  _23
REMARK    8  A    between atoms: _26  and  _28
REMARK    9  A    between atoms: _28  and  _29
REMARK   10  A    between atoms: _32  and  _34
REMARK   11  A    between atoms: _34  and  _35
REMARK   12  A    between atoms: _37  and  _39
REMARK   13  A    between atoms: _39  and  _40
REMARK   14  A    between atoms: _39  and  _42
REMARK   15  A    between atoms: _42  and  _43
REMARK   16  A    between atoms: _48  and  _49
REMARK   17  A    between atoms: _51  and  _53
REMARK   18  A    between atoms: _53  and  _54
REMARK   19  A    between atoms: _56  and  _58
REMARK   20  A    between atoms: _58  and  _59
REMARK   21  A    between atoms: _58  and  _61
REMARK   22  A    between atoms: _61  and  _62
REMARK   23  A    between atoms: _65  and  _67
REMARK   24  A    between atoms: _67  and  _68
REMARK   25  A    between atoms: _67  and  _70
REMARK   26  A    between atoms: _70  and  _71
REMARK   27  A    between atoms: _71  and  _72
REMARK   28  A    between atoms: _72  and  _73
REMARK   29  A    between atoms: _83  and  _84
REMARK   30  A    between atoms: _89  and  _91
REMARK   31  A    between atoms: _91  and  _92
REMARK   32  A    between atoms: _91  and  _94
REMARK   33  A    between atoms: _94  and  _95
REMARK   34  A    between atoms: _95  and  _96
REMARK   35  A    between atoms: _96  and  _97
REMARK   36  A    between atoms: _97  and  _98
REMARK   37  A    between atoms: _102  and  _104
REMARK   38  A    between atoms: _104  and  _105
REMARK   39  A    between atoms: _104  and  _107
REMARK   40  A    between atoms: _107  and  _108
REMARK   41  A    between atoms: _108  and  _109
REMARK   42  A    between atoms: _112  and  _114
REMARK   43  A    between atoms: _114  and  _115
REMARK   44  A    between atoms: _114  and  _117
REMARK   45  A    between atoms: _117  and  _118
REMARK   46  A    between atoms: _121  and  _123
REMARK   47  A    between atoms: _123  and  _124
REMARK   48  A    between atoms: _123  and  _126
REMARK   49  A    between atoms: _129  and  _131
REMARK   50  A    between atoms: _131  and  _132
REMARK   51  A    between atoms: _131  and  _134
REMARK   52  A    between atoms: _134  and  _135
REMARK   53  A    between atoms: _138  and  _140
REMARK   54  A    between atoms: _140  and  _141
REMARK   55  A    between atoms: _143  and  _145
REMARK   56  A    between atoms: _145  and  _146
REMARK   57  A    between atoms: _145  and  _148
REMARK   58  A    between atoms: _148  and  _149
REMARK   59  A    between atoms: _149  and  _150
REMARK   60  A    between atoms: _155  and  _157
REMARK   61  A    between atoms: _157  and  _158
REMARK   62  A    between atoms: _157  and  _160
REMARK   63  A    between atoms: _160  and  _161
REMARK   64  A    between atoms: _161  and  _162
REMARK   65  A    between atoms: _167  and  _169
REMARK   66  A    between atoms: _169  and  _170
REMARK   67  A    between atoms: _169  and  _172
REMARK   68  A    between atoms: _172  and  _173
REMARK   69  A    between atoms: _173  and  _174
REMARK   70  A    between atoms: _176  and  _178
REMARK   71  A    between atoms: _178  and  _179
REMARK   72  A    between atoms: _178  and  _181
REMARK   73  A    between atoms: _181  and  _182
REMARK   74  A    between atoms: _182  and  _183
REMARK   75  A    between atoms: _183  and  _184
REMARK   76  A    between atoms: _184  and  _185
REMARK   77  A    between atoms: _189  and  _191
REMARK   78  A    between atoms: _191  and  _192
REMARK   79  A    between atoms: _194  and  _196
REMARK   80  A    between atoms: _196  and  _197
REMARK   81  A    between atoms: _196  and  _199
REMARK   82  A    between atoms: _199  and  _200
REMARK   83  A    between atoms: _203  and  _205
REMARK   84  A    between atoms: _205  and  _206
REMARK   85  A    between atoms: _208  and  _210
REMARK   86  A    between atoms: _210  and  _211
REMARK   87  A    between atoms: _210  and  _213
REMARK   88  A    between atoms: _213  and  _214
REMARK   89  A    between atoms: _219  and  _221
REMARK   90  A    between atoms: _221  and  _222
REMARK   91  A    between atoms: _225  and  _227
REMARK   92  A    between atoms: _227  and  _228
REMARK   93  A    between atoms: _227  and  _230
REMARK   94  A    between atoms: _230  and  _231
REMARK   95  A    between atoms: _234  and  _236
REMARK   96  A    between atoms: _236  and  _237
REMARK   97  A    between atoms: _236  and  _239
REMARK   98  A    between atoms: _239  and  _240
REMARK   99  A    between atoms: _243  and  _245
REMARK  100  A    between atoms: _245  and  _246
REMARK  101  A    between atoms: _245  and  _248
REMARK  102  A    between atoms: _251  and  _253
REMARK  103  A    between atoms: _253  and  _254
REMARK  104  A    between atoms: _253  and  _256
REMARK  105  A    between atoms: _256  and  _257
REMARK  106  A    between atoms: _260  and  _262
REMARK  107  A    between atoms: _262  and  _263
REMARK  108  A    between atoms: _262  and  _265
REMARK  109  A    between atoms: _265  and  _266
REMARK  110  A    between atoms: _269  and  _271
REMARK  111  A    between atoms: _271  and  _272
REMARK  112  A    between atoms: _275  and  _277
REMARK  113  A    between atoms: _277  and  _278
REMARK  114  A    between atoms: _277  and  _280
REMARK  115  A    between atoms: _280  and  _281
REMARK  116  A    between atoms: _281  and  _282
REMARK  117  A    between atoms: _282  and  MG_647
REMARK  118  A    between atoms: _284  and  _286
REMARK  119  A    between atoms: _286  and  _287
REMARK  120  A    between atoms: _286  and  _289
REMARK  121  A    between atoms: _289  and  _290
REMARK  122  A    between atoms: _293  and  _295
REMARK  123  A    between atoms: _295  and  _296
REMARK  124  A    between atoms: _295  and  _298
REMARK  125  A    between atoms: _298  and  _299
REMARK  126  A    between atoms: _302  and  _304
REMARK  127  A    between atoms: _304  and  _305
REMARK  128  A    between atoms: _304  and  _307
REMARK  129  A    between atoms: _310  and  _312
REMARK  130  A    between atoms: _312  and  _313
REMARK  131  A    between atoms: _316  and  _318
REMARK  132  A    between atoms: _318  and  _319
REMARK  133  A    between atoms: _318  and  _321
REMARK  134  A    between atoms: _321  and  _322
REMARK  135  A    between atoms: _325  and  _327
REMARK  136  A    between atoms: _327  and  _328
REMARK  137  A    between atoms: _327  and  _330
REMARK  138  A    between atoms: _330  and  _331
REMARK  139  A    between atoms: _331  and  _332
REMARK  140  A    between atoms: _335  and  _337
REMARK  141  A    between atoms: _337  and  _338
REMARK  142  A    between atoms: _337  and  _340
REMARK  143  A    between atoms: _340  and  _341
REMARK  144  A    between atoms: _341  and  _342
REMARK  145  A    between atoms: _345  and  _347
REMARK  146  A    between atoms: _347  and  _348
REMARK  147  A    between atoms: _347  and  _350
REMARK  148  A    between atoms: _353  and  _355
REMARK  149  A    between atoms: _355  and  _356
REMARK  150  A    between atoms: _355  and  _358
REMARK  151  A    between atoms: _358  and  _359
REMARK  152  A    between atoms: _361  and  _363
REMARK  153  A    between atoms: _363  and  _364
REMARK  154  A    between atoms: _363  and  _366
REMARK  155  A    between atoms: _366  and  _367
REMARK  156  A    between atoms: _367  and  _368
REMARK  157  A    between atoms: _368  and  _369
REMARK  158  A    between atoms: _369  and  _370
REMARK  159  A    between atoms: _374  and  _376
REMARK  160  A    between atoms: _376  and  _377
REMARK  161  A    between atoms: _376  and  _379
REMARK  162  A    between atoms: _379  and  _380
REMARK  163  A    between atoms: _385  and  _386
REMARK  164  A    between atoms: _388  and  _390
REMARK  165  A    between atoms: _390  and  _391
REMARK  166  A    between atoms: _393  and  _395
REMARK  167  A    between atoms: _395  and  _396
REMARK  168  A    between atoms: _395  and  _398
REMARK  169  A    between atoms: _401  and  _403
REMARK  170  A    between atoms: _403  and  _404
REMARK  171  A    between atoms: _403  and  _406
REMARK  172  A    between atoms: _406  and  _407
REMARK  173  A    between atoms: _407  and  _408
REMARK  174  A    between atoms: _410  and  _412
REMARK  175  A    between atoms: _412  and  _413
REMARK  176  A    between atoms: _412  and  _415
REMARK  177  A    between atoms: _418  and  _420
REMARK  178  A    between atoms: _420  and  _421
REMARK  179  A    between atoms: _420  and  _423
REMARK  180  A    between atoms: _423  and  _424
REMARK  181  A    between atoms: _424  and  _425
REMARK  182  A    between atoms: _428  and  _430
REMARK  183  A    between atoms: _430  and  _431
REMARK  184  A    between atoms: _430  and  _433
REMARK  185  A    between atoms: _433  and  _434
REMARK  186  A    between atoms: _434  and  _435
REMARK  187  A    between atoms: _435  and  _436
REMARK  188  A    between atoms: _436  and  _437
REMARK  189  A    between atoms: _441  and  _443
REMARK  190  A    between atoms: _443  and  _444
REMARK  191  A    between atoms: _443  and  _446
REMARK  192  A    between atoms: _446  and  _447
REMARK  193  A    between atoms: _450  and  _452
REMARK  194  A    between atoms: _452  and  _453
REMARK  195  A    between atoms: _456  and  _458
REMARK  196  A    between atoms: _458  and  _459
REMARK  197  A    between atoms: _458  and  _461
REMARK  198  A    between atoms: _464  and  _466
REMARK  199  A    between atoms: _466  and  _467
REMARK  200  A    between atoms: _466  and  _469
REMARK  201  A    between atoms: _469  and  _470
REMARK  202  A    between atoms: _473  and  _475
REMARK  203  A    between atoms: _475  and  _476
REMARK  204  A    between atoms: _478  and  _480
REMARK  205  A    between atoms: _480  and  _481
REMARK  206  A    between atoms: _480  and  _483
REMARK  207  A    between atoms: _483  and  _484
REMARK  208  A    between atoms: _484  and  _485
REMARK  209  A    between atoms: _485  and  _486
REMARK  210  A    between atoms: _495  and  _497
REMARK  211  A    between atoms: _497  and  _498
REMARK  212  A    between atoms: _497  and  _500
REMARK  213  A    between atoms: _500  and  _501
REMARK  214  A    between atoms: _506  and  _507
REMARK  215  A    between atoms: _509  and  _511
REMARK  216  A    between atoms: _511  and  _512
REMARK  217  A    between atoms: _511  and  _514
REMARK  218  A    between atoms: _514  and  _515
REMARK  219  A    between atoms: _520  and  _522
REMARK  220  A    between atoms: _522  and  _523
REMARK  221  A    between atoms: _522  and  _525
REMARK  222  A    between atoms: _525  and  _526
REMARK  223  A    between atoms: _526  and  _527
REMARK  224  A    between atoms: _530  and  _532
REMARK  225  A    between atoms: _532  and  _533
REMARK  226  A    between atoms: _532  and  _535
REMARK  227  A    between atoms: _535  and  _536
REMARK  228  A    between atoms: _539  and  _541
REMARK  229  A    between atoms: _541  and  _542
REMARK  230  A    between atoms: _541  and  _544
REMARK  231  A    between atoms: _544  and  _545
REMARK  232  A    between atoms: _545  and  _546
REMARK  233  A    between atoms: _551  and  _553
REMARK  234  A    between atoms: _553  and  _554
REMARK  235  A    between atoms: _553  and  _556
REMARK  236  A    between atoms: _556  and  _557
REMARK  237  A    between atoms: _560  and  _562
REMARK  238  A    between atoms: _562  and  _563
REMARK  239  A    between atoms: _562  and  _565
REMARK  240  A    between atoms: _565  and  _566
REMARK  241  A    between atoms: _569  and  _571
REMARK  242  A    between atoms: _571  and  _572
REMARK  243  A    between atoms: _571  and  _574
REMARK  244  A    between atoms: _574  and  _575
REMARK  245  A    between atoms: _578  and  _580
REMARK  246  A    between atoms: _580  and  _581
REMARK  247  A    between atoms: _580  and  _583
REMARK  248  A    between atoms: _583  and  _584
REMARK  249  A    between atoms: _587  and  _589
REMARK  250  A    between atoms: _589  and  _590
REMARK  251  A    between atoms: _589  and  _592
REMARK  252  A    between atoms: _592  and  _593
REMARK  253  A    between atoms: _593  and  _594
REMARK  254  A    between atoms: _594  and  _595
REMARK  255  A    between atoms: _604  and  _606
REMARK  256  A    between atoms: _606  and  _607
REMARK  257  A    between atoms: _606  and  _609
REMARK  258  A    between atoms: _609  and  _610
REMARK  259  A    between atoms: _615  and  _616
REMARK  260  A    between atoms: _618  and  _620
REMARK  261  A    between atoms: _620  and  _621
REMARK  262  A    between atoms: _620  and  _623
REMARK  263  A    between atoms: _623  and  _624
REMARK  264  A    between atoms: _627  and  _629
REMARK  265  A    between atoms: _629  and  _630
REMARK  266  A    between atoms: _629  and  _632
REMARK  267  A    between atoms: _634  and  _636
REMARK  268  A    between atoms: _636  and  _637
REMARK  269  A    between atoms: _639  and  _641
REMARK  270  A    between atoms: _641  and  _642
REMARK  271  A    between atoms: _641  and  _644
REMARK  272  A    between atoms: _644  and  _645
REMARK                            x       y       z     vdW  Elec       q    Type
REMARK                         _______ _______ _______ _____ _____    ______ ____
ROOT
ATOM      1  C   ALA A   4      68.276  43.456  54.596  0.00  0.00    +0.000 C 
ATOM      2  N   UNK A   5      66.969  43.576  54.391  0.00  0.00    +0.000 N 
ATOM      3  H   UNK A   5      66.292  42.920  54.829  0.00  0.00    +0.000 HD
ATOM      4  O   ALA A   4      69.081  44.216  54.056  0.00  0.00    +0.000 OA
ENDROOT
BRANCH   1   5
ATOM      5  CA  ALA A   4      68.779  42.327  55.510  0.00  0.00    +0.000 C 
ATOM      6  CB  ALA A   4      69.282  41.164  54.656  0.00  0.00    +0.000 C 
BRANCH   5   9
ATOM      7  C   LEU A   3      67.275  42.587  57.444  0.00  0.00    +0.000 C 
ATOM      8  O   LEU A   3      67.432  43.810  57.500  0.00  0.00    +0.000 OA
ATOM      9  N   ALA A   4      67.872  41.815  56.541  0.00  0.00    +0.000 N 
ATOM     10  H   ALA A   4      67.685  40.792  56.568  0.00  0.00    +0.000 HD
BRANCH   7  11
ATOM     11  CA  LEU A   3      66.393  41.848  58.469  0.00  0.00    +0.000 C 
BRANCH  11  13
ATOM     12  C   ILE A   2      67.967  40.654  59.920  0.00  0.00    +0.000 C 
ATOM     13  N   LEU A   3      67.266  41.750  59.640  0.00  0.00    +0.000 N 
ATOM     14  H   LEU A   3      67.341  42.568  60.278  0.00  0.00    +0.000 HD
ATOM     15  O   ILE A   2      67.867  39.594  59.299  0.00  0.00    +0.000 OA
BRANCH  12  16
ATOM     16  CA  ILE A   2      68.883  40.755  61.113  0.00  0.00    +0.000 C 
BRANCH  16  19
ATOM     17  C   VAL A   1      68.433  39.836  63.279  0.00  0.00    +0.000 C 
ATOM     18  O   VAL A   1      68.422  40.962  63.761  0.00  0.00    +0.000 OA
ATOM     19  N   ILE A   2      68.695  39.620  61.997  0.00  0.00    +0.000 N 
ATOM     20  H   ILE A   2      68.765  38.649  61.630  0.00  0.00    +0.000 HD
BRANCH  17  21
ATOM     21  CA  VAL A   1      68.177  38.616  64.145  0.00  0.00    +0.000 C 
BRANCH  21  22
ATOM     22  CB  VAL A   1      66.663  38.566  64.490  0.00  0.00    +0.000 C 
ATOM     23  CG2 VAL A   1      66.331  37.280  65.208  0.00  0.00    +0.000 C 
ATOM     24  CG1 VAL A   1      65.833  38.654  63.211  0.00  0.00    +0.000 C 
ENDBRANCH  21  22
BRANCH  21  25
ATOM     25  N   VAL A   1      69.015  38.693  65.326  0.00  0.00    +0.000 NA
ATOM     26  H   VAL A   1      69.127  39.604  65.814  0.00  0.00    +0.000 HD
ENDBRANCH  21  25
ENDBRANCH  17  21
ENDBRANCH  16  19
BRANCH  16  27
ATOM     27  CB  ILE A   2      70.334  40.883  60.595  0.00  0.00    +0.000 C 
ATOM     28  CG2 ILE A   2      70.395  41.920  59.458  0.00  0.00    +0.000 C 
BRANCH  27  29
ATOM     29  CG1 ILE A   2      71.265  41.319  61.726  0.00  0.00    +0.000 C 
ATOM     30  CD1 ILE A   2      72.690  41.578  61.264  0.00  0.00    +0.000 C 
ENDBRANCH  27  29
ENDBRANCH  16  27
ENDBRANCH  12  16
ENDBRANCH  11  13
BRANCH  11  31
ATOM     31  CB  LEU A   3      65.132  42.670  58.792  0.00  0.00    +0.000 C 
BRANCH  31  32
ATOM     32  CG  LEU A   3      63.914  41.944  59.386  0.00  0.00    +0.000 C 
ATOM     33  CD2 LEU A   3      64.346  40.850  60.341  0.00  0.00    +0.000 C 
ATOM     34  CD1 LEU A   3      63.016  42.951  60.079  0.00  0.00    +0.000 C 
ENDBRANCH  31  32
ENDBRANCH  11  31
ENDBRANCH   7  11
ENDBRANCH   5   9
ENDBRANCH   1   5
BRANCH   2  35
ATOM     35  C   UNK A   5      66.521  44.659  53.531  0.00  0.00    +0.000 C 
BRANCH  35  36
ATOM     36  C   UNK A   5      66.826  46.002  54.200  0.00  0.00    +0.000 C 
ATOM     37  N   ASP A   6      67.117  45.979  55.496  0.00  0.00    +0.000 N 
ATOM     38  H   ASP A   6      67.080  45.080  56.018  0.00  0.00    +0.000 HD
ATOM     39  O   UNK A   5      66.804  47.042  53.553  0.00  0.00    +0.000 OA
BRANCH  37  40
ATOM     40  CA  ASP A   6      67.488  47.208  56.192  0.00  0.00    +0.000 C 
BRANCH  40  41
ATOM     41  C   ASP A   6      69.012  47.292  56.185  0.00  0.00    +0.000 C 
ATOM     42  O   ASP A   6      69.695  46.605  56.943  0.00  0.00    +0.000 OA
ATOM     43  N   LEU A   7      69.523  48.130  55.295  0.00  0.00    +0.000 N 
ATOM     44  H   LEU A   7      68.872  48.665  54.686  0.00  0.00    +0.000 HD
BRANCH  43  45
ATOM     45  CA  LEU A   7      70.949  48.335  55.132  0.00  0.00    +0.000 C 
BRANCH  45  46
ATOM     46  C   LEU A   7      71.425  49.376  56.138  0.00  0.00    +0.000 C 
ATOM     47  O   LEU A   7      70.959  50.512  56.132  0.00  0.00    +0.000 OA
ENDBRANCH  45  46
BRANCH  45  48
ATOM     48  CB  LEU A   7      71.242  48.812  53.706  0.00  0.00    +0.000 C 
BRANCH  48  49
ATOM     49  CG  LEU A   7      72.701  49.129  53.366  0.00  0.00    +0.000 C 
ATOM     50  CD2 LEU A   7      73.543  47.864  53.405  0.00  0.00    +0.000 C 
ATOM     51  CD1 LEU A   7      72.756  49.753  51.986  0.00  0.00    +0.000 C 
ENDBRANCH  48  49
ENDBRANCH  45  48
ENDBRANCH  43  45
ENDBRANCH  40  41
BRANCH  40  52
ATOM     52  CB  ASP A   6      66.965  47.235  57.634  0.00  0.00    +0.000 C 
BRANCH  52  53
ATOM     53  CG  ASP A   6      65.519  47.690  57.722  0.00  0.00    +0.000 C 
ATOM     54  OD2 ASP A   6      64.787  47.209  58.606  0.00  0.00    +0.000 OA
ATOM     55  OD1 ASP A   6      65.117  48.549  56.919  0.00  0.00    +0.000 OA
ENDBRANCH  52  53
ENDBRANCH  40  52
ENDBRANCH  37  40
ENDBRANCH  35  36
BRANCH  35  56
ATOM     56  C   UNK A   5      65.033  44.524  53.152  0.00  0.00    +0.000 C 
BRANCH  56  57
ATOM     57  C   UNK A   5      64.112  44.386  54.356  0.00  0.00    +0.000 C 
ATOM     58  O   UNK A   5      64.575  44.186  55.495  0.00  0.00    +0.000 OA
BRANCH  57  59
ATOM     59  O   UNK A   5      62.897  44.471  54.149  0.00  0.00    +0.000 OA
BRANCH  59  60
ATOM     60 MG   UNK A   5      60.978  45.373  54.732  0.00  0.00    +0.000 Mg
ATOM     61  O   UNK A   5      60.082  46.380  52.839  0.00  0.00    +0.000 OA
ENDBRANCH  59  60
ENDBRANCH  57  59
ENDBRANCH  56  57
ENDBRANCH  35  56
ENDBRANCH   2  35
TORSDOF 27
REMARK  Name = ../refined-set-2016/3juk/3juk_pocket.pdb
REMARK  272 active torsions:
REMARK  status: ('A' for Active; 'I' for Inactive)
REMARK    1  A    between atoms: _1  and  _3
REMARK    2  A    between atoms: _3  and  _4
REMARK    3  A    between atoms: _3  and  _6
REMARK    4  A    between atoms: _6  and  _7
REMARK    5  A    between atoms: _14  and  _15
REMARK    6  A    between atoms: _20  and  _22
REMARK    7  A    between atoms: _22  and  _23
REMARK    8  A    between atoms: _26  and  _28
REMARK    9  A    between atoms: _28  and  _29
REMARK   10  A    between atoms: _32  and  _34
REMARK   11  A    between atoms: _34  and  _35
REMARK   12  A    between atoms: _37  and  _39
REMARK   13  A    between atoms: _39  and  _40
REMARK   14  A    between atoms: _39  and  _42
REMARK   15  A    between atoms: _42  and  _43
REMARK   16  A    between atoms: _48  and  _49
REMARK   17  A    between atoms: _51  and  _53
REMARK   18  A    between atoms: _53  and  _54
REMARK   19  A    between atoms: _56  and  _58
REMARK   20  A    between atoms: _58  and  _59
REMARK   21  A    between atoms: _58  and  _61
REMARK   22  A    between atoms: _61  and  _62
REMARK   23  A    between atoms: _65  and  _67
REMARK   24  A    between atoms: _67  and  _68
REMARK   25  A    between atoms: _67  and  _70
REMARK   26  A    between atoms: _70  and  _71
REMARK   27  A    between atoms: _71  and  _72
REMARK   28  A    between atoms: _72  and  _73
REMARK   29  A    between atoms: _83  and  _84
REMARK   30  A    between atoms: _89  and  _91
REMARK   31  A    between atoms: _91  and  _92
REMARK   32  A    between atoms: _91  and  _94
REMARK   33  A    between atoms: _94  and  _95
REMARK   34  A    between atoms: _95  and  _96
REMARK   35  A    between atoms: _96  and  _97
REMARK   36  A    between atoms: _97  and  _98
REMARK   37  A    between atoms: _102  and  _104
REMARK   38  A    between atoms: _104  and  _105
REMARK   39  A    between atoms: _104  and  _107
REMARK   40  A    between atoms: _107  and  _108
REMARK   41  A    between atoms: _108  and  _109
REMARK   42  A    between atoms: _112  and  _114
REMARK   43  A    between atoms: _114  and  _115
REMARK   44  A    between atoms: _114  and  _117
REMARK   45  A    between atoms: _117  and  _118
REMARK   46  A    between atoms: _121  and  _123
REMARK   47  A    between atoms: _123  and  _124
REMARK   48  A    between atoms: _123  and  _126
REMARK   49  A    between atoms: _129  and  _131
REMARK   50  A    between atoms: _131  and  _132
REMARK   51  A    between atoms: _131  and  _134
REMARK   52  A    between atoms: _134  and  _135
REMARK   53  A    between atoms: _138  and  _140
REMARK   54  A    between atoms: _140  and  _141
REMARK   55  A    between atoms: _143  and  _145
REMARK   56  A    between atoms: _145  and  _146
REMARK   57  A    between atoms: _145  and  _148
REMARK   58  A    between atoms: _148  and  _149
REMARK   59  A    between atoms: _149  and  _150
REMARK   60  A    between atoms: _155  and  _157
REMARK   61  A    between atoms: _157  and  _158
REMARK   62  A    between atoms: _157  and  _160
REMARK   63  A    between atoms: _160  and  _161
REMARK   64  A    between atoms: _161  and  _162
REMARK   65  A    between atoms: _167  and  _169
REMARK   66  A    between atoms: _169  and  _170
REMARK   67  A    between atoms: _169  and  _172
REMARK   68  A    between atoms: _172  and  _173
REMARK   69  A    between atoms: _173  and  _174
REMARK   70  A    between atoms: _176  and  _178
REMARK   71  A    between atoms: _178  and  _179
REMARK   72  A    between atoms: _178  and  _181
REMARK   73  A    between atoms: _181  and  _182
REMARK   74  A    between atoms: _182  and  _183
REMARK   75  A    between atoms: _183  and  _184
REMARK   76  A    between atoms: _184  and  _185
REMARK   77  A    between atoms: _189  and  _191
REMARK   78  A    between atoms: _191  and  _192
REMARK   79  A    between atoms: _194  and  _196
REMARK   80  A    between atoms: _196  and  _197
REMARK   81  A    between atoms: _196  and  _199
REMARK   82  A    between atoms: _199  and  _200
REMARK   83  A    between atoms: _203  and  _205
REMARK   84  A    between atoms: _205  and  _206
REMARK   85  A    between atoms: _208  and  _210
REMARK   86  A    between atoms: _210  and  _211
REMARK   87  A    between atoms: _210  and  _213
REMARK   88  A    between atoms: _213  and  _214
REMARK   89  A    between atoms: _219  and  _221
REMARK   90  A    between atoms: _221  and  _222
REMARK   91  A    between atoms: _225  and  _227
REMARK   92  A    between atoms: _227  and  _228
REMARK   93  A    between atoms: _227  and  _230
REMARK   94  A    between atoms: _230  and  _231
REMARK   95  A    between atoms: _234  and  _236
REMARK   96  A    between atoms: _236  and  _237
REMARK   97  A    between atoms: _236  and  _239
REMARK   98  A    between atoms: _239  and  _240
REMARK   99  A    between atoms: _243  and  _245
REMARK  100  A    between atoms: _245  and  _246
REMARK  101  A    between atoms: _245  and  _248
REMARK  102  A    between atoms: _251  and  _253
REMARK  103  A    between atoms: _253  and  _254
REMARK  104  A    between atoms: _253  and  _256
REMARK  105  A    between atoms: _256  and  _257
REMARK  106  A    between atoms: _260  and  _262
REMARK  107  A    between atoms: _262  and  _263
REMARK  108  A    between atoms: _262  and  _265
REMARK  109  A    between atoms: _265  and  _266
REMARK  110  A    between atoms: _269  and  _271
REMARK  111  A    between atoms: _271  and  _272
REMARK  112  A    between atoms: _275  and  _277
REMARK  113  A    between atoms: _277  and  _278
REMARK  114  A    between atoms: _277  and  _280
REMARK  115  A    between atoms: _280  and  _281
REMARK  116  A    between atoms: _281  and  _282
REMARK  117  A    between atoms: _282  and  MG_647
REMARK  118  A    between atoms: _284  and  _286
REMARK  119  A    between atoms: _286  and  _287
REMARK  120  A    between atoms: _286  and  _289
REMARK  121  A    between atoms: _289  and  _290
REMARK  122  A    between atoms: _293  and  _295
REMARK  123  A    between atoms: _295  and  _296
REMARK  124  A    between atoms: _295  and  _298
REMARK  125  A    between atoms: _298  and  _299
REMARK  126  A    between atoms: _302  and  _304
REMARK  127  A    between atoms: _304  and  _305
REMARK  128  A    between atoms: _304  and  _307
REMARK  129  A    between atoms: _310  and  _312
REMARK  130  A    between atoms: _312  and  _313
REMARK  131  A    between atoms: _316  and  _318
REMARK  132  A    between atoms: _318  and  _319
REMARK  133  A    between atoms: _318  and  _321
REMARK  134  A    between atoms: _321  and  _322
REMARK  135  A    between atoms: _325  and  _327
REMARK  136  A    between atoms: _327  and  _328
REMARK  137  A    between atoms: _327  and  _330
REMARK  138  A    between atoms: _330  and  _331
REMARK  139  A    between atoms: _331  and  _332
REMARK  140  A    between atoms: _335  and  _337
REMARK  141  A    between atoms: _337  and  _338
REMARK  142  A    between atoms: _337  and  _340
REMARK  143  A    between atoms: _340  and  _341
REMARK  144  A    between atoms: _341  and  _342
REMARK  145  A    between atoms: _345  and  _347
REMARK  146  A    between atoms: _347  and  _348
REMARK  147  A    between atoms: _347  and  _350
REMARK  148  A    between atoms: _353  and  _355
REMARK  149  A    between atoms: _355  and  _356
REMARK  150  A    between atoms: _355  and  _358
REMARK  151  A    between atoms: _358  and  _359
REMARK  152  A    between atoms: _361  and  _363
REMARK  153  A    between atoms: _363  and  _364
REMARK  154  A    between atoms: _363  and  _366
REMARK  155  A    between atoms: _366  and  _367
REMARK  156  A    between atoms: _367  and  _368
REMARK  157  A    between atoms: _368  and  _369
REMARK  158  A    between atoms: _369  and  _370
REMARK  159  A    between atoms: _374  and  _376
REMARK  160  A    between atoms: _376  and  _377
REMARK  161  A    between atoms: _376  and  _379
REMARK  162  A    between atoms: _379  and  _380
REMARK  163  A    between atoms: _385  and  _386
REMARK  164  A    between atoms: _388  and  _390
REMARK  165  A    between atoms: _390  and  _391
REMARK  166  A    between atoms: _393  and  _395
REMARK  167  A    between atoms: _395  and  _396
REMARK  168  A    between atoms: _395  and  _398
REMARK  169  A    between atoms: _401  and  _403
REMARK  170  A    between atoms: _403  and  _404
REMARK  171  A    between atoms: _403  and  _406
REMARK  172  A    between atoms: _406  and  _407
REMARK  173  A    between atoms: _407  and  _408
REMARK  174  A    between atoms: _410  and  _412
REMARK  175  A    between atoms: _412  and  _413
REMARK  176  A    between atoms: _412  and  _415
REMARK  177  A    between atoms: _418  and  _420
REMARK  178  A    between atoms: _420  and  _421
REMARK  179  A    between atoms: _420  and  _423
REMARK  180  A    between atoms: _423  and  _424
REMARK  181  A    between atoms: _424  and  _425
REMARK  182  A    between atoms: _428  and  _430
REMARK  183  A    between atoms: _430  and  _431
REMARK  184  A    between atoms: _430  and  _433
REMARK  185  A    between atoms: _433  and  _434
REMARK  186  A    between atoms: _434  and  _435
REMARK  187  A    between atoms: _435  and  _436
REMARK  188  A    between atoms: _436  and  _437
REMARK  189  A    between atoms: _441  and  _443
REMARK  190  A    between atoms: _443  and  _444
REMARK  191  A    between atoms: _443  and  _446
REMARK  192  A    between atoms: _446  and  _447
REMARK  193  A    between atoms: _450  and  _452
REMARK  194  A    between atoms: _452  and  _453
REMARK  195  A    between atoms: _456  and  _458
REMARK  196  A    between atoms: _458  and  _459
REMARK  197  A    between atoms: _458  and  _461
REMARK  198  A    between atoms: _464  and  _466
REMARK  199  A    between atoms: _466  and  _467
REMARK  200  A    between atoms: _466  and  _469
REMARK  201  A    between atoms: _469  and  _470
REMARK  202  A    between atoms: _473  and  _475
REMARK  203  A    between atoms: _475  and  _476
REMARK  204  A    between atoms: _478  and  _480
REMARK  205  A    between atoms: _480  and  _481
REMARK  206  A    between atoms: _480  and  _483
REMARK  207  A    between atoms: _483  and  _484
REMARK  208  A    between atoms: _484  and  _485
REMARK  209  A    between atoms: _485  and  _486
REMARK  210  A    between atoms: _495  and  _497
REMARK  211  A    between atoms: _497  and  _498
REMARK  212  A    between atoms: _497  and  _500
REMARK  213  A    between atoms: _500  and  _501
REMARK  214  A    between atoms: _506  and  _507
REMARK  215  A    between atoms: _509  and  _511
REMARK  216  A    between atoms: _511  and  _512
REMARK  217  A    between atoms: _511  and  _514
REMARK  218  A    between atoms: _514  and  _515
REMARK  219  A    between atoms: _520  and  _522
REMARK  220  A    between atoms: _522  and  _523
REMARK  221  A    between atoms: _522  and  _525
REMARK  222  A    between atoms: _525  and  _526
REMARK  223  A    between atoms: _526  and  _527
REMARK  224  A    between atoms: _530  and  _532
REMARK  225  A    between atoms: _532  and  _533
REMARK  226  A    between atoms: _532  and  _535
REMARK  227  A    between atoms: _535  and  _536
REMARK  228  A    between atoms: _539  and  _541
REMARK  229  A    between atoms: _541  and  _542
REMARK  230  A    between atoms: _541  and  _544
REMARK  231  A    between atoms: _544  and  _545
REMARK  232  A    between atoms: _545  and  _546
REMARK  233  A    between atoms: _551  and  _553
REMARK  234  A    between atoms: _553  and  _554
REMARK  235  A    between atoms: _553  and  _556
REMARK  236  A    between atoms: _556  and  _557
REMARK  237  A    between atoms: _560  and  _562
REMARK  238  A    between atoms: _562  and  _563
REMARK  239  A    between atoms: _562  and  _565
REMARK  240  A    between atoms: _565  and  _566
REMARK  241  A    between atoms: _569  and  _571
REMARK  242  A    between atoms: _571  and  _572
REMARK  243  A    between atoms: _571  and  _574
REMARK  244  A    between atoms: _574  and  _575
REMARK  245  A    between atoms: _578  and  _580
REMARK  246  A    between atoms: _580  and  _581
REMARK  247  A    between atoms: _580  and  _583
REMARK  248  A    between atoms: _583  and  _584
REMARK  249  A    between atoms: _587  and  _589
REMARK  250  A    between atoms: _589  and  _590
REMARK  251  A    between atoms: _589  and  _592
REMARK  252  A    between atoms: _592  and  _593
REMARK  253  A    between atoms: _593  and  _594
REMARK  254  A    between atoms: _594  and  _595
REMARK  255  A    between atoms: _604  and  _606
REMARK  256  A    between atoms: _606  and  _607
REMARK  257  A    between atoms: _606  and  _609
REMARK  258  A    between atoms: _609  and  _610
REMARK  259  A    between atoms: _615  and  _616
REMARK  260  A    between atoms: _618  and  _620
REMARK  261  A    between atoms: _620  and  _621
REMARK  262  A    between atoms: _620  and  _623
REMARK  263  A    between atoms: _623  and  _624
REMARK  264  A    between atoms: _627  and  _629
REMARK  265  A    between atoms: _629  and  _630
REMARK  266  A    between atoms: _629  and  _632
REMARK  267  A    between atoms: _634  and  _636
REMARK  268  A    between atoms: _636  and  _637
REMARK  269  A    between atoms: _639  and  _641
REMARK  270  A    between atoms: _641  and  _642
REMARK  271  A    between atoms: _641  and  _644
REMARK  272  A    between atoms: _644  and  _645
REMARK                            x       y       z     vdW  Elec       q    Type
REMARK                         _______ _______ _______ _____ _____    ______ ____
ROOT
ATOM      1  CA  ILE A   3      64.566  51.832  66.682  0.00  0.00    +0.149 C 
ENDROOT
BRANCH   1   3
ATOM      2  C   ALA A   2      65.409  49.561  66.708  0.00  0.00    +0.241 C 
ATOM      3  N   ILE A   3      65.531  50.831  67.078  0.00  0.00    -0.297 N 
ATOM      4  H   ILE A   3      66.341  51.112  67.667  0.00  0.00    +0.150 HD
ATOM      5  O   ALA A   2      64.467  49.137  66.029  0.00  0.00    -0.273 OA
BRANCH   2   6
ATOM      6  CA  ALA A   2      66.517  48.636  67.187  0.00  0.00    +0.149 C 
ATOM      7  CB  ALA A   2      67.516  48.398  66.050  0.00  0.00    +0.031 C 
BRANCH   6  10
ATOM      8  C   VAL A   1      65.409  47.290  68.885  0.00  0.00    +0.238 C 
ATOM      9  O   VAL A   1      65.229  48.275  69.616  0.00  0.00    -0.274 OA
ATOM     10  N   ALA A   2      66.019  47.365  67.706  0.00  0.00    -0.297 N 
ATOM     11  H   ALA A   2      66.144  46.500  67.142  0.00  0.00    +0.150 HD
BRANCH   8  12
ATOM     12  CA  VAL A   1      64.962  45.892  69.311  0.00  0.00    +0.145 C 
BRANCH  12  13
ATOM     13  CB  VAL A   1      63.422  45.711  69.209  0.00  0.00    +0.025 C 
ATOM     14  CG2 VAL A   1      62.802  45.924  70.536  0.00  0.00    +0.002 C 
ATOM     15  CG1 VAL A   1      62.822  46.647  68.186  0.00  0.00    +0.002 C 
ENDBRANCH  12  13
BRANCH  12  16
ATOM     16  N   VAL A   1      65.427  45.603  70.662  0.00  0.00    -0.238 NA
ATOM     17  H   VAL A   1      65.166  46.238  71.443  0.00  0.00    +0.142 HD
ENDBRANCH  12  16
ENDBRANCH   8  12
ENDBRANCH   6  10
ENDBRANCH   2   6
ENDBRANCH   1   3
BRANCH   1  18
ATOM     18  C   ILE A   3      65.293  53.070  66.163  0.00  0.00    +0.241 C 
ATOM     19  O   ILE A   3      66.456  53.312  66.485  0.00  0.00    -0.273 OA
ATOM     20  N   GLU A   4      64.582  53.837  65.348  0.00  0.00    -0.298 N 
ATOM     21  H   GLU A   4      63.606  53.555  65.125  0.00  0.00    +0.150 HD
BRANCH  20  22
ATOM     22  CA  GLU A   4      65.105  55.051  64.755  0.00  0.00    +0.137 C 
BRANCH  22  23
ATOM     23  C   GLU A   4      63.922  55.999  64.695  0.00  0.00    +0.227 C 
ATOM     24  O   GLU A   4      62.796  55.563  64.474  0.00  0.00    -0.286 OA
ENDBRANCH  22  23
BRANCH  22  25
ATOM     25  CB  GLU A   4      65.643  54.745  63.347  0.00  0.00    +0.039 C 
BRANCH  25  26
ATOM     26  CG  GLU A   4      65.882  55.951  62.446  0.00  0.00    +0.116 C 
BRANCH  26  27
ATOM     27  CD  GLU A   4      66.404  55.564  61.050  0.00  0.00    +0.365 C 
ATOM     28  OE2 GLU A   4      67.625  55.672  60.811  0.00  0.00    -0.246 OA
ATOM     29  OE1 GLU A   4      65.596  55.144  60.193  0.00  0.00    -0.246 OA
ENDBRANCH  26  27
ENDBRANCH  25  26
ENDBRANCH  22  25
ENDBRANCH  20  22
ENDBRANCH   1  18
BRANCH   1  30
ATOM     30  CB  ILE A   3      63.647  52.263  67.860  0.00  0.00    +0.027 C 
ATOM     31  CG2 ILE A   3      62.644  51.161  68.162  0.00  0.00    +0.002 C 
BRANCH  30  32
ATOM     32  CG1 ILE A   3      64.498  52.665  69.084  0.00  0.00    +0.002 C 
ATOM     33  CD1 ILE A   3      63.718  53.440  70.151  0.00  0.00    +0.000 C 
ENDBRANCH  30  32
ENDBRANCH   1  30
TORSDOF 14
REMARK  Name = ../refined-set-2016/3juk/3juk_pocket.pdb
REMARK  272 active torsions:
REMARK  status: ('A' for Active; 'I' for Inactive)
REMARK    1  A    between atoms: _1  and  _3
REMARK    2  A    between atoms: _3  and  _4
REMARK    3  A    between atoms: _3  and  _6
REMARK    4  A    between atoms: _6  and  _7
REMARK    5  A    between atoms: _14  and  _15
REMARK    6  A    between atoms: _20  and  _22
REMARK    7  A    between atoms: _22  and  _23
REMARK    8  A    between atoms: _26  and  _28
REMARK    9  A    between atoms: _28  and  _29
REMARK   10  A    between atoms: _32  and  _34
REMARK   11  A    between atoms: _34  and  _35
REMARK   12  A    between atoms: _37  and  _39
REMARK   13  A    between atoms: _39  and  _40
REMARK   14  A    between atoms: _39  and  _42
REMARK   15  A    between atoms: _42  and  _43
REMARK   16  A    between atoms: _48  and  _49
REMARK   17  A    between atoms: _51  and  _53
REMARK   18  A    between atoms: _53  and  _54
REMARK   19  A    between atoms: _56  and  _58
REMARK   20  A    between atoms: _58  and  _59
REMARK   21  A    between atoms: _58  and  _61
REMARK   22  A    between atoms: _61  and  _62
REMARK   23  A    between atoms: _65  and  _67
REMARK   24  A    between atoms: _67  and  _68
REMARK   25  A    between atoms: _67  and  _70
REMARK   26  A    between atoms: _70  and  _71
REMARK   27  A    between atoms: _71  and  _72
REMARK   28  A    between atoms: _72  and  _73
REMARK   29  A    between atoms: _83  and  _84
REMARK   30  A    between atoms: _89  and  _91
REMARK   31  A    between atoms: _91  and  _92
REMARK   32  A    between atoms: _91  and  _94
REMARK   33  A    between atoms: _94  and  _95
REMARK   34  A    between atoms: _95  and  _96
REMARK   35  A    between atoms: _96  and  _97
REMARK   36  A    between atoms: _97  and  _98
REMARK   37  A    between atoms: _102  and  _104
REMARK   38  A    between atoms: _104  and  _105
REMARK   39  A    between atoms: _104  and  _107
REMARK   40  A    between atoms: _107  and  _108
REMARK   41  A    between atoms: _108  and  _109
REMARK   42  A    between atoms: _112  and  _114
REMARK   43  A    between atoms: _114  and  _115
REMARK   44  A    between atoms: _114  and  _117
REMARK   45  A    between atoms: _117  and  _118
REMARK   46  A    between atoms: _121  and  _123
REMARK   47  A    between atoms: _123  and  _124
REMARK   48  A    between atoms: _123  and  _126
REMARK   49  A    between atoms: _129  and  _131
REMARK   50  A    between atoms: _131  and  _132
REMARK   51  A    between atoms: _131  and  _134
REMARK   52  A    between atoms: _134  and  _135
REMARK   53  A    between atoms: _138  and  _140
REMARK   54  A    between atoms: _140  and  _141
REMARK   55  A    between atoms: _143  and  _145
REMARK   56  A    between atoms: _145  and  _146
REMARK   57  A    between atoms: _145  and  _148
REMARK   58  A    between atoms: _148  and  _149
REMARK   59  A    between atoms: _149  and  _150
REMARK   60  A    between atoms: _155  and  _157
REMARK   61  A    between atoms: _157  and  _158
REMARK   62  A    between atoms: _157  and  _160
REMARK   63  A    between atoms: _160  and  _161
REMARK   64  A    between atoms: _161  and  _162
REMARK   65  A    between atoms: _167  and  _169
REMARK   66  A    between atoms: _169  and  _170
REMARK   67  A    between atoms: _169  and  _172
REMARK   68  A    between atoms: _172  and  _173
REMARK   69  A    between atoms: _173  and  _174
REMARK   70  A    between atoms: _176  and  _178
REMARK   71  A    between atoms: _178  and  _179
REMARK   72  A    between atoms: _178  and  _181
REMARK   73  A    between atoms: _181  and  _182
REMARK   74  A    between atoms: _182  and  _183
REMARK   75  A    between atoms: _183  and  _184
REMARK   76  A    between atoms: _184  and  _185
REMARK   77  A    between atoms: _189  and  _191
REMARK   78  A    between atoms: _191  and  _192
REMARK   79  A    between atoms: _194  and  _196
REMARK   80  A    between atoms: _196  and  _197
REMARK   81  A    between atoms: _196  and  _199
REMARK   82  A    between atoms: _199  and  _200
REMARK   83  A    between atoms: _203  and  _205
REMARK   84  A    between atoms: _205  and  _206
REMARK   85  A    between atoms: _208  and  _210
REMARK   86  A    between atoms: _210  and  _211
REMARK   87  A    between atoms: _210  and  _213
REMARK   88  A    between atoms: _213  and  _214
REMARK   89  A    between atoms: _219  and  _221
REMARK   90  A    between atoms: _221  and  _222
REMARK   91  A    between atoms: _225  and  _227
REMARK   92  A    between atoms: _227  and  _228
REMARK   93  A    between atoms: _227  and  _230
REMARK   94  A    between atoms: _230  and  _231
REMARK   95  A    between atoms: _234  and  _236
REMARK   96  A    between atoms: _236  and  _237
REMARK   97  A    between atoms: _236  and  _239
REMARK   98  A    between atoms: _239  and  _240
REMARK   99  A    between atoms: _243  and  _245
REMARK  100  A    between atoms: _245  and  _246
REMARK  101  A    between atoms: _245  and  _248
REMARK  102  A    between atoms: _251  and  _253
REMARK  103  A    between atoms: _253  and  _254
REMARK  104  A    between atoms: _253  and  _256
REMARK  105  A    between atoms: _256  and  _257
REMARK  106  A    between atoms: _260  and  _262
REMARK  107  A    between atoms: _262  and  _263
REMARK  108  A    between atoms: _262  and  _265
REMARK  109  A    between atoms: _265  and  _266
REMARK  110  A    between atoms: _269  and  _271
REMARK  111  A    between atoms: _271  and  _272
REMARK  112  A    between atoms: _275  and  _277
REMARK  113  A    between atoms: _277  and  _278
REMARK  114  A    between atoms: _277  and  _280
REMARK  115  A    between atoms: _280  and  _281
REMARK  116  A    between atoms: _281  and  _282
REMARK  117  A    between atoms: _282  and  MG_647
REMARK  118  A    between atoms: _284  and  _286
REMARK  119  A    between atoms: _286  and  _287
REMARK  120  A    between atoms: _286  and  _289
REMARK  121  A    between atoms: _289  and  _290
REMARK  122  A    between atoms: _293  and  _295
REMARK  123  A    between atoms: _295  and  _296
REMARK  124  A    between atoms: _295  and  _298
REMARK  125  A    between atoms: _298  and  _299
REMARK  126  A    between atoms: _302  and  _304
REMARK  127  A    between atoms: _304  and  _305
REMARK  128  A    between atoms: _304  and  _307
REMARK  129  A    between atoms: _310  and  _312
REMARK  130  A    between atoms: _312  and  _313
REMARK  131  A    between atoms: _316  and  _318
REMARK  132  A    between atoms: _318  and  _319
REMARK  133  A    between atoms: _318  and  _321
REMARK  134  A    between atoms: _321  and  _322
REMARK  135  A    between atoms: _325  and  _327
REMARK  136  A    between atoms: _327  and  _328
REMARK  137  A    between atoms: _327  and  _330
REMARK  138  A    between atoms: _330  and  _331
REMARK  139  A    between atoms: _331  and  _332
REMARK  140  A    between atoms: _335  and  _337
REMARK  141  A    between atoms: _337  and  _338
REMARK  142  A    between atoms: _337  and  _340
REMARK  143  A    between atoms: _340  and  _341
REMARK  144  A    between atoms: _341  and  _342
REMARK  145  A    between atoms: _345  and  _347
REMARK  146  A    between atoms: _347  and  _348
REMARK  147  A    between atoms: _347  and  _350
REMARK  148  A    between atoms: _353  and  _355
REMARK  149  A    between atoms: _355  and  _356
REMARK  150  A    between atoms: _355  and  _358
REMARK  151  A    between atoms: _358  and  _359
REMARK  152  A    between atoms: _361  and  _363
REMARK  153  A    between atoms: _363  and  _364
REMARK  154  A    between atoms: _363  and  _366
REMARK  155  A    between atoms: _366  and  _367
REMARK  156  A    between atoms: _367  and  _368
REMARK  157  A    between atoms: _368  and  _369
REMARK  158  A    between atoms: _369  and  _370
REMARK  159  A    between atoms: _374  and  _376
REMARK  160  A    between atoms: _376  and  _377
REMARK  161  A    between atoms: _376  and  _379
REMARK  162  A    between atoms: _379  and  _380
REMARK  163  A    between atoms: _385  and  _386
REMARK  164  A    between atoms: _388  and  _390
REMARK  165  A    between atoms: _390  and  _391
REMARK  166  A    between atoms: _393  and  _395
REMARK  167  A    between atoms: _395  and  _396
REMARK  168  A    between atoms: _395  and  _398
REMARK  169  A    between atoms: _401  and  _403
REMARK  170  A    between atoms: _403  and  _404
REMARK  171  A    between atoms: _403  and  _406
REMARK  172  A    between atoms: _406  and  _407
REMARK  173  A    between atoms: _407  and  _408
REMARK  174  A    between atoms: _410  and  _412
REMARK  175  A    between atoms: _412  and  _413
REMARK  176  A    between atoms: _412  and  _415
REMARK  177  A    between atoms: _418  and  _420
REMARK  178  A    between atoms: _420  and  _421
REMARK  179  A    between atoms: _420  and  _423
REMARK  180  A    between atoms: _423  and  _424
REMARK  181  A    between atoms: _424  and  _425
REMARK  182  A    between atoms: _428  and  _430
REMARK  183  A    between atoms: _430  and  _431
REMARK  184  A    between atoms: _430  and  _433
REMARK  185  A    between atoms: _433  and  _434
REMARK  186  A    between atoms: _434  and  _435
REMARK  187  A    between atoms: _435  and  _436
REMARK  188  A    between atoms: _436  and  _437
REMARK  189  A    between atoms: _441  and  _443
REMARK  190  A    between atoms: _443  and  _444
REMARK  191  A    between atoms: _443  and  _446
REMARK  192  A    between atoms: _446  and  _447
REMARK  193  A    between atoms: _450  and  _452
REMARK  194  A    between atoms: _452  and  _453
REMARK  195  A    between atoms: _456  and  _458
REMARK  196  A    between atoms: _458  and  _459
REMARK  197  A    between atoms: _458  and  _461
REMARK  198  A    between atoms: _464  and  _466
REMARK  199  A    between atoms: _466  and  _467
REMARK  200  A    between atoms: _466  and  _469
REMARK  201  A    between atoms: _469  and  _470
REMARK  202  A    between atoms: _473  and  _475
REMARK  203  A    between atoms: _475  and  _476
REMARK  204  A    between atoms: _478  and  _480
REMARK  205  A    between atoms: _480  and  _481
REMARK  206  A    between atoms: _480  and  _483
REMARK  207  A    between atoms: _483  and  _484
REMARK  208  A    between atoms: _484  and  _485
REMARK  209  A    between atoms: _485  and  _486
REMARK  210  A    between atoms: _495  and  _497
REMARK  211  A    between atoms: _497  and  _498
REMARK  212  A    between atoms: _497  and  _500
REMARK  213  A    between atoms: _500  and  _501
REMARK  214  A    between atoms: _506  and  _507
REMARK  215  A    between atoms: _509  and  _511
REMARK  216  A    between atoms: _511  and  _512
REMARK  217  A    between atoms: _511  and  _514
REMARK  218  A    between atoms: _514  and  _515
REMARK  219  A    between atoms: _520  and  _522
REMARK  220  A    between atoms: _522  and  _523
REMARK  221  A    between atoms: _522  and  _525
REMARK  222  A    between atoms: _525  and  _526
REMARK  223  A    between atoms: _526  and  _527
REMARK  224  A    between atoms: _530  and  _532
REMARK  225  A    between atoms: _532  and  _533
REMARK  226  A    between atoms: _532  and  _535
REMARK  227  A    between atoms: _535  and  _536
REMARK  228  A    between atoms: _539  and  _541
REMARK  229  A    between atoms: _541  and  _542
REMARK  230  A    between atoms: _541  and  _544
REMARK  231  A    between atoms: _544  and  _545
REMARK  232  A    between atoms: _545  and  _546
REMARK  233  A    between atoms: _551  and  _553
REMARK  234  A    between atoms: _553  and  _554
REMARK  235  A    between atoms: _553  and  _556
REMARK  236  A    between atoms: _556  and  _557
REMARK  237  A    between atoms: _560  and  _562
REMARK  238  A    between atoms: _562  and  _563
REMARK  239  A    between atoms: _562  and  _565
REMARK  240  A    between atoms: _565  and  _566
REMARK  241  A    between atoms: _569  and  _571
REMARK  242  A    between atoms: _571  and  _572
REMARK  243  A    between atoms: _571  and  _574
REMARK  244  A    between atoms: _574  and  _575
REMARK  245  A    between atoms: _578  and  _580
REMARK  246  A    between atoms: _580  and  _581
REMARK  247  A    between atoms: _580  and  _583
REMARK  248  A    between atoms: _583  and  _584
REMARK  249  A    between atoms: _587  and  _589
REMARK  250  A    between atoms: _589  and  _590
REMARK  251  A    between atoms: _589  and  _592
REMARK  252  A    between atoms: _592  and  _593
REMARK  253  A    between atoms: _593  and  _594
REMARK  254  A    between atoms: _594  and  _595
REMARK  255  A    between atoms: _604  and  _606
REMARK  256  A    between atoms: _606  and  _607
REMARK  257  A    between atoms: _606  and  _609
REMARK  258  A    between atoms: _609  and  _610
REMARK  259  A    between atoms: _615  and  _616
REMARK  260  A    between atoms: _618  and  _620
REMARK  261  A    between atoms: _620  and  _621
REMARK  262  A    between atoms: _620  and  _623
REMARK  263  A    between atoms: _623  and  _624
REMARK  264  A    between atoms: _627  and  _629
REMARK  265  A    between atoms: _629  and  _630
REMARK  266  A    between atoms: _629  and  _632
REMARK  267  A    between atoms: _634  and  _636
REMARK  268  A    between atoms: _636  and  _637
REMARK  269  A    between atoms: _639  and  _641
REMARK  270  A    between atoms: _641  and  _642
REMARK  271  A    between atoms: _641  and  _644
REMARK  272  A    between atoms: _644  and  _645
REMARK                            x       y       z     vdW  Elec       q    Type
REMARK                         _______ _______ _______ _____ _____    ______ ____
ROOT
ATOM      1  CA  LYS A   4      55.361  51.337  57.140  0.00  0.00    +0.149 C 
ENDROOT
BRANCH   1   3
ATOM      2  C   SER A   3      53.358  52.330  58.091  0.00  0.00    +0.243 C 
ATOM      3  N   LYS A   4      54.653  52.431  57.805  0.00  0.00    -0.297 N 
ATOM      4  H   LYS A   4      55.169  53.298  58.057  0.00  0.00    +0.150 HD
ATOM      5  O   SER A   3      52.696  51.326  57.801  0.00  0.00    -0.273 OA
BRANCH   2   6
ATOM      6  CA  SER A   3      52.692  53.526  58.795  0.00  0.00    +0.178 C 
BRANCH   6   9
ATOM      7  C   VAL A   2      54.418  54.364  60.293  0.00  0.00    +0.241 C 
ATOM      8  O   VAL A   2      54.530  53.257  60.828  0.00  0.00    -0.273 OA
ATOM      9  N   SER A   3      53.580  54.578  59.284  0.00  0.00    -0.295 N 
ATOM     10  H   SER A   3      53.556  55.515  58.833  0.00  0.00    +0.150 HD
BRANCH   7  11
ATOM     11  CA  VAL A   2      55.292  55.553  60.741  0.00  0.00    +0.148 C 
BRANCH  11  13
ATOM     12  C   GLU A   1      56.172  55.900  58.500  0.00  0.00    +0.238 C 
ATOM     13  N   VAL A   2      55.742  56.396  59.651  0.00  0.00    -0.297 N 
ATOM     14  H   VAL A   2      55.727  57.428  59.777  0.00  0.00    +0.150 HD
ATOM     15  O   GLU A   1      56.217  54.692  58.263  0.00  0.00    -0.274 OA
BRANCH  12  16
ATOM     16  CA  GLU A   1      56.655  56.924  57.469  0.00  0.00    +0.145 C 
BRANCH  16  17
ATOM     17  N   GLU A   1      56.102  58.267  57.690  0.00  0.00    -0.238 NA
ATOM     18  H   GLU A   1      56.637  58.941  58.274  0.00  0.00    +0.142 HD
ENDBRANCH  16  17
BRANCH  16  19
ATOM     19  CB  GLU A   1      58.180  56.938  57.552  0.00  0.00    +0.038 C 
BRANCH  19  20
ATOM     20  CG  GLU A   1      58.906  57.802  56.559  0.00  0.00    +0.116 C 
BRANCH  20  21
ATOM     21  CD  GLU A   1      60.405  57.612  56.693  0.00  0.00    +0.365 C 
ATOM     22  OE2 GLU A   1      61.044  58.419  57.411  0.00  0.00    -0.246 OA
ATOM     23  OE1 GLU A   1      60.934  56.641  56.103  0.00  0.00    -0.246 OA
ENDBRANCH  20  21
ENDBRANCH  19  20
ENDBRANCH  16  19
ENDBRANCH  12  16
ENDBRANCH  11  13
BRANCH  11  24
ATOM     24  CB  VAL A   2      54.561  56.435  61.778  0.00  0.00    +0.027 C 
ATOM     25  CG2 VAL A   2      54.998  56.056  63.159  0.00  0.00    +0.002 C 
ATOM     26  CG1 VAL A   2      53.039  56.368  61.583  0.00  0.00    +0.002 C 
ENDBRANCH  11  24
ENDBRANCH   7  11
ENDBRANCH   6   9
BRANCH   6  27
ATOM     27  CB  SER A   3      51.647  54.141  57.865  0.00  0.00    +0.166 C 
BRANCH  27  28
ATOM     28  OG  SER A   3      51.613  53.450  56.632  0.00  0.00    -0.380 OA
ATOM     29  H   SER A   3      51.382  52.501  56.793  0.00  0.00    +0.211 HD
ENDBRANCH  27  28
ENDBRANCH   6  27
ENDBRANCH   2   6
ENDBRANCH   1   3
BRANCH   1  30
ATOM     30  C   LYS A   4      56.086  50.455  58.161  0.00  0.00    +0.241 C 
ATOM     31  N   TYR A   5      56.075  50.877  59.419  0.00  0.00    -0.297 N 
ATOM     32  H   TYR A   5      55.545  51.733  59.678  0.00  0.00    +0.150 HD
ATOM     33  O   LYS A   4      56.633  49.400  57.821  0.00  0.00    -0.273 OA
BRANCH  31  34
ATOM     34  CA  TYR A   5      56.804  50.141  60.430  0.00  0.00    +0.153 C 
BRANCH  34  35
ATOM     35  C   TYR A   5      56.070  49.839  61.725  0.00  0.00    +0.241 C 
ATOM     36  N   GLY A   6      56.747  49.062  62.560  0.00  0.00    -0.295 N 
ATOM     37  H   GLY A   6      57.665  48.668  62.270  0.00  0.00    +0.150 HD
ATOM     38  O   TYR A   5      54.950  50.286  61.965  0.00  0.00    -0.273 OA
BRANCH  36  39
ATOM     39  CA  GLY A   6      56.221  48.761  63.864  0.00  0.00    +0.176 C 
BRANCH  39  40
ATOM     40  C   GLY A   6      56.651  49.980  64.656  0.00  0.00    +0.243 C 
ATOM     41  N   VAL A   7      55.837  50.375  65.627  0.00  0.00    -0.298 N 
ATOM     42  H   VAL A   7      54.964  49.841  65.810  0.00  0.00    +0.150 HD
ATOM     43  O   GLY A   6      57.713  50.568  64.375  0.00  0.00    -0.273 OA
BRANCH  41  44
ATOM     44  CA  VAL A   7      56.144  51.543  66.441  0.00  0.00    +0.137 C 
BRANCH  44  45
ATOM     45  CB  VAL A   7      55.219  52.727  66.099  0.00  0.00    +0.026 C 
ATOM     46  CG2 VAL A   7      55.709  53.979  66.815  0.00  0.00    +0.002 C 
ATOM     47  CG1 VAL A   7      55.175  52.935  64.572  0.00  0.00    +0.002 C 
ENDBRANCH  44  45
BRANCH  44  48
ATOM     48  C   VAL A   7      55.983  51.203  67.912  0.00  0.00    +0.227 C 
ATOM     49  O   VAL A   7      55.046  50.498  68.291  0.00  0.00    -0.286 OA
ENDBRANCH  44  48
ENDBRANCH  41  44
ENDBRANCH  39  40
ENDBRANCH  36  39
ENDBRANCH  34  35
BRANCH  34  50
ATOM     50  CB  TYR A   5      58.079  50.922  60.786  0.00  0.00    +0.055 C 
BRANCH  50  51
ATOM     51  CG  TYR A   5      58.876  51.416  59.602  0.00  0.00    -0.020 A 
ATOM     52  CD2 TYR A   5      59.008  52.784  59.340  0.00  0.00    -0.001 A 
ATOM     53  CE2 TYR A   5      59.778  53.244  58.267  0.00  0.00    +0.036 A 
ATOM     54  CZ  TYR A   5      60.418  52.323  57.441  0.00  0.00    +0.134 A 
ATOM     55  CE1 TYR A   5      60.292  50.962  57.677  0.00  0.00    +0.036 A 
ATOM     56  CD1 TYR A   5      59.527  50.517  58.757  0.00  0.00    -0.001 A 
BRANCH  54  57
ATOM     57  OH  TYR A   5      61.197  52.737  56.387  0.00  0.00    -0.506 OA
ATOM     58  HH  TYR A   5      60.834  52.366  55.544  0.00  0.00    +0.292 HD
ENDBRANCH  54  57
ENDBRANCH  50  51
ENDBRANCH  34  50
ENDBRANCH  31  34
ENDBRANCH   1  30
BRANCH   1  59
ATOM     59  CB  LYS A   4      56.402  51.892  56.159  0.00  0.00    +0.029 C 
BRANCH  59  60
ATOM     60  CG  LYS A   4      55.857  52.714  55.001  0.00  0.00    +0.000 C 
BRANCH  60  61
ATOM     61  CD  LYS A   4      56.924  53.696  54.507  0.00  0.00    -0.024 C 
BRANCH  61  62
ATOM     62  CE  LYS A   4      56.339  54.717  53.532  0.00  0.00    -0.086 C 
BRANCH  62  63
ATOM     63  NZ  LYS A   4      57.245  55.891  53.298  0.00  0.00    +0.380 N 
ATOM     64  HZ1 LYS A   4      57.419  56.378  54.200  0.00  0.00    -0.089 HD
ATOM     65  HZ2 LYS A   4      58.148  55.558  52.903  0.00  0.00    -0.089 HD
ATOM     66  HZ3 LYS A   4      56.794  56.547  52.629  0.00  0.00    -0.089 HD
ENDBRANCH  62  63
ENDBRANCH  61  62
ENDBRANCH  60  61
ENDBRANCH  59  60
ENDBRANCH   1  59
TORSDOF 29
REMARK  Name = ../refined-set-2016/3juk/3juk_pocket.pdb
REMARK  272 active torsions:
REMARK  status: ('A' for Active; 'I' for Inactive)
REMARK    1  A    between atoms: _1  and  _3
REMARK    2  A    between atoms: _3  and  _4
REMARK    3  A    between atoms: _3  and  _6
REMARK    4  A    between atoms: _6  and  _7
REMARK    5  A    between atoms: _14  and  _15
REMARK    6  A    between atoms: _20  and  _22
REMARK    7  A    between atoms: _22  and  _23
REMARK    8  A    between atoms: _26  and  _28
REMARK    9  A    between atoms: _28  and  _29
REMARK   10  A    between atoms: _32  and  _34
REMARK   11  A    between atoms: _34  and  _35
REMARK   12  A    between atoms: _37  and  _39
REMARK   13  A    between atoms: _39  and  _40
REMARK   14  A    between atoms: _39  and  _42
REMARK   15  A    between atoms: _42  and  _43
REMARK   16  A    between atoms: _48  and  _49
REMARK   17  A    between atoms: _51  and  _53
REMARK   18  A    between atoms: _53  and  _54
REMARK   19  A    between atoms: _56  and  _58
REMARK   20  A    between atoms: _58  and  _59
REMARK   21  A    between atoms: _58  and  _61
REMARK   22  A    between atoms: _61  and  _62
REMARK   23  A    between atoms: _65  and  _67
REMARK   24  A    between atoms: _67  and  _68
REMARK   25  A    between atoms: _67  and  _70
REMARK   26  A    between atoms: _70  and  _71
REMARK   27  A    between atoms: _71  and  _72
REMARK   28  A    between atoms: _72  and  _73
REMARK   29  A    between atoms: _83  and  _84
REMARK   30  A    between atoms: _89  and  _91
REMARK   31  A    between atoms: _91  and  _92
REMARK   32  A    between atoms: _91  and  _94
REMARK   33  A    between atoms: _94  and  _95
REMARK   34  A    between atoms: _95  and  _96
REMARK   35  A    between atoms: _96  and  _97
REMARK   36  A    between atoms: _97  and  _98
REMARK   37  A    between atoms: _102  and  _104
REMARK   38  A    between atoms: _104  and  _105
REMARK   39  A    between atoms: _104  and  _107
REMARK   40  A    between atoms: _107  and  _108
REMARK   41  A    between atoms: _108  and  _109
REMARK   42  A    between atoms: _112  and  _114
REMARK   43  A    between atoms: _114  and  _115
REMARK   44  A    between atoms: _114  and  _117
REMARK   45  A    between atoms: _117  and  _118
REMARK   46  A    between atoms: _121  and  _123
REMARK   47  A    between atoms: _123  and  _124
REMARK   48  A    between atoms: _123  and  _126
REMARK   49  A    between atoms: _129  and  _131
REMARK   50  A    between atoms: _131  and  _132
REMARK   51  A    between atoms: _131  and  _134
REMARK   52  A    between atoms: _134  and  _135
REMARK   53  A    between atoms: _138  and  _140
REMARK   54  A    between atoms: _140  and  _141
REMARK   55  A    between atoms: _143  and  _145
REMARK   56  A    between atoms: _145  and  _146
REMARK   57  A    between atoms: _145  and  _148
REMARK   58  A    between atoms: _148  and  _149
REMARK   59  A    between atoms: _149  and  _150
REMARK   60  A    between atoms: _155  and  _157
REMARK   61  A    between atoms: _157  and  _158
REMARK   62  A    between atoms: _157  and  _160
REMARK   63  A    between atoms: _160  and  _161
REMARK   64  A    between atoms: _161  and  _162
REMARK   65  A    between atoms: _167  and  _169
REMARK   66  A    between atoms: _169  and  _170
REMARK   67  A    between atoms: _169  and  _172
REMARK   68  A    between atoms: _172  and  _173
REMARK   69  A    between atoms: _173  and  _174
REMARK   70  A    between atoms: _176  and  _178
REMARK   71  A    between atoms: _178  and  _179
REMARK   72  A    between atoms: _178  and  _181
REMARK   73  A    between atoms: _181  and  _182
REMARK   74  A    between atoms: _182  and  _183
REMARK   75  A    between atoms: _183  and  _184
REMARK   76  A    between atoms: _184  and  _185
REMARK   77  A    between atoms: _189  and  _191
REMARK   78  A    between atoms: _191  and  _192
REMARK   79  A    between atoms: _194  and  _196
REMARK   80  A    between atoms: _196  and  _197
REMARK   81  A    between atoms: _196  and  _199
REMARK   82  A    between atoms: _199  and  _200
REMARK   83  A    between atoms: _203  and  _205
REMARK   84  A    between atoms: _205  and  _206
REMARK   85  A    between atoms: _208  and  _210
REMARK   86  A    between atoms: _210  and  _211
REMARK   87  A    between atoms: _210  and  _213
REMARK   88  A    between atoms: _213  and  _214
REMARK   89  A    between atoms: _219  and  _221
REMARK   90  A    between atoms: _221  and  _222
REMARK   91  A    between atoms: _225  and  _227
REMARK   92  A    between atoms: _227  and  _228
REMARK   93  A    between atoms: _227  and  _230
REMARK   94  A    between atoms: _230  and  _231
REMARK   95  A    between atoms: _234  and  _236
REMARK   96  A    between atoms: _236  and  _237
REMARK   97  A    between atoms: _236  and  _239
REMARK   98  A    between atoms: _239  and  _240
REMARK   99  A    between atoms: _243  and  _245
REMARK  100  A    between atoms: _245  and  _246
REMARK  101  A    between atoms: _245  and  _248
REMARK  102  A    between atoms: _251  and  _253
REMARK  103  A    between atoms: _253  and  _254
REMARK  104  A    between atoms: _253  and  _256
REMARK  105  A    between atoms: _256  and  _257
REMARK  106  A    between atoms: _260  and  _262
REMARK  107  A    between atoms: _262  and  _263
REMARK  108  A    between atoms: _262  and  _265
REMARK  109  A    between atoms: _265  and  _266
REMARK  110  A    between atoms: _269  and  _271
REMARK  111  A    between atoms: _271  and  _272
REMARK  112  A    between atoms: _275  and  _277
REMARK  113  A    between atoms: _277  and  _278
REMARK  114  A    between atoms: _277  and  _280
REMARK  115  A    between atoms: _280  and  _281
REMARK  116  A    between atoms: _281  and  _282
REMARK  117  A    between atoms: _282  and  MG_647
REMARK  118  A    between atoms: _284  and  _286
REMARK  119  A    between atoms: _286  and  _287
REMARK  120  A    between atoms: _286  and  _289
REMARK  121  A    between atoms: _289  and  _290
REMARK  122  A    between atoms: _293  and  _295
REMARK  123  A    between atoms: _295  and  _296
REMARK  124  A    between atoms: _295  and  _298
REMARK  125  A    between atoms: _298  and  _299
REMARK  126  A    between atoms: _302  and  _304
REMARK  127  A    between atoms: _304  and  _305
REMARK  128  A    between atoms: _304  and  _307
REMARK  129  A    between atoms: _310  and  _312
REMARK  130  A    between atoms: _312  and  _313
REMARK  131  A    between atoms: _316  and  _318
REMARK  132  A    between atoms: _318  and  _319
REMARK  133  A    between atoms: _318  and  _321
REMARK  134  A    between atoms: _321  and  _322
REMARK  135  A    between atoms: _325  and  _327
REMARK  136  A    between atoms: _327  and  _328
REMARK  137  A    between atoms: _327  and  _330
REMARK  138  A    between atoms: _330  and  _331
REMARK  139  A    between atoms: _331  and  _332
REMARK  140  A    between atoms: _335  and  _337
REMARK  141  A    between atoms: _337  and  _338
REMARK  142  A    between atoms: _337  and  _340
REMARK  143  A    between atoms: _340  and  _341
REMARK  144  A    between atoms: _341  and  _342
REMARK  145  A    between atoms: _345  and  _347
REMARK  146  A    between atoms: _347  and  _348
REMARK  147  A    between atoms: _347  and  _350
REMARK  148  A    between atoms: _353  and  _355
REMARK  149  A    between atoms: _355  and  _356
REMARK  150  A    between atoms: _355  and  _358
REMARK  151  A    between atoms: _358  and  _359
REMARK  152  A    between atoms: _361  and  _363
REMARK  153  A    between atoms: _363  and  _364
REMARK  154  A    between atoms: _363  and  _366
REMARK  155  A    between atoms: _366  and  _367
REMARK  156  A    between atoms: _367  and  _368
REMARK  157  A    between atoms: _368  and  _369
REMARK  158  A    between atoms: _369  and  _370
REMARK  159  A    between atoms: _374  and  _376
REMARK  160  A    between atoms: _376  and  _377
REMARK  161  A    between atoms: _376  and  _379
REMARK  162  A    between atoms: _379  and  _380
REMARK  163  A    between atoms: _385  and  _386
REMARK  164  A    between atoms: _388  and  _390
REMARK  165  A    between atoms: _390  and  _391
REMARK  166  A    between atoms: _393  and  _395
REMARK  167  A    between atoms: _395  and  _396
REMARK  168  A    between atoms: _395  and  _398
REMARK  169  A    between atoms: _401  and  _403
REMARK  170  A    between atoms: _403  and  _404
REMARK  171  A    between atoms: _403  and  _406
REMARK  172  A    between atoms: _406  and  _407
REMARK  173  A    between atoms: _407  and  _408
REMARK  174  A    between atoms: _410  and  _412
REMARK  175  A    between atoms: _412  and  _413
REMARK  176  A    between atoms: _412  and  _415
REMARK  177  A    between atoms: _418  and  _420
REMARK  178  A    between atoms: _420  and  _421
REMARK  179  A    between atoms: _420  and  _423
REMARK  180  A    between atoms: _423  and  _424
REMARK  181  A    between atoms: _424  and  _425
REMARK  182  A    between atoms: _428  and  _430
REMARK  183  A    between atoms: _430  and  _431
REMARK  184  A    between atoms: _430  and  _433
REMARK  185  A    between atoms: _433  and  _434
REMARK  186  A    between atoms: _434  and  _435
REMARK  187  A    between atoms: _435  and  _436
REMARK  188  A    between atoms: _436  and  _437
REMARK  189  A    between atoms: _441  and  _443
REMARK  190  A    between atoms: _443  and  _444
REMARK  191  A    between atoms: _443  and  _446
REMARK  192  A    between atoms: _446  and  _447
REMARK  193  A    between atoms: _450  and  _452
REMARK  194  A    between atoms: _452  and  _453
REMARK  195  A    between atoms: _456  and  _458
REMARK  196  A    between atoms: _458  and  _459
REMARK  197  A    between atoms: _458  and  _461
REMARK  198  A    between atoms: _464  and  _466
REMARK  199  A    between atoms: _466  and  _467
REMARK  200  A    between atoms: _466  and  _469
REMARK  201  A    between atoms: _469  and  _470
REMARK  202  A    between atoms: _473  and  _475
REMARK  203  A    between atoms: _475  and  _476
REMARK  204  A    between atoms: _478  and  _480
REMARK  205  A    between atoms: _480  and  _481
REMARK  206  A    between atoms: _480  and  _483
REMARK  207  A    between atoms: _483  and  _484
REMARK  208  A    between atoms: _484  and  _485
REMARK  209  A    between atoms: _485  and  _486
REMARK  210  A    between atoms: _495  and  _497
REMARK  211  A    between atoms: _497  and  _498
REMARK  212  A    between atoms: _497  and  _500
REMARK  213  A    between atoms: _500  and  _501
REMARK  214  A    between atoms: _506  and  _507
REMARK  215  A    between atoms: _509  and  _511
REMARK  216  A    between atoms: _511  and  _512
REMARK  217  A    between atoms: _511  and  _514
REMARK  218  A    between atoms: _514  and  _515
REMARK  219  A    between atoms: _520  and  _522
REMARK  220  A    between atoms: _522  and  _523
REMARK  221  A    between atoms: _522  and  _525
REMARK  222  A    between atoms: _525  and  _526
REMARK  223  A    between atoms: _526  and  _527
REMARK  224  A    between atoms: _530  and  _532
REMARK  225  A    between atoms: _532  and  _533
REMARK  226  A    between atoms: _532  and  _535
REMARK  227  A    between atoms: _535  and  _536
REMARK  228  A    between atoms: _539  and  _541
REMARK  229  A    between atoms: _541  and  _542
REMARK  230  A    between atoms: _541  and  _544
REMARK  231  A    between atoms: _544  and  _545
REMARK  232  A    between atoms: _545  and  _546
REMARK  233  A    between atoms: _551  and  _553
REMARK  234  A    between atoms: _553  and  _554
REMARK  235  A    between atoms: _553  and  _556
REMARK  236  A    between atoms: _556  and  _557
REMARK  237  A    between atoms: _560  and  _562
REMARK  238  A    between atoms: _562  and  _563
REMARK  239  A    between atoms: _562  and  _565
REMARK  240  A    between atoms: _565  and  _566
REMARK  241  A    between atoms: _569  and  _571
REMARK  242  A    between atoms: _571  and  _572
REMARK  243  A    between atoms: _571  and  _574
REMARK  244  A    between atoms: _574  and  _575
REMARK  245  A    between atoms: _578  and  _580
REMARK  246  A    between atoms: _580  and  _581
REMARK  247  A    between atoms: _580  and  _583
REMARK  248  A    between atoms: _583  and  _584
REMARK  249  A    between atoms: _587  and  _589
REMARK  250  A    between atoms: _589  and  _590
REMARK  251  A    between atoms: _589  and  _592
REMARK  252  A    between atoms: _592  and  _593
REMARK  253  A    between atoms: _593  and  _594
REMARK  254  A    between atoms: _594  and  _595
REMARK  255  A    between atoms: _604  and  _606
REMARK  256  A    between atoms: _606  and  _607
REMARK  257  A    between atoms: _606  and  _609
REMARK  258  A    between atoms: _609  and  _610
REMARK  259  A    between atoms: _615  and  _616
REMARK  260  A    between atoms: _618  and  _620
REMARK  261  A    between atoms: _620  and  _621
REMARK  262  A    between atoms: _620  and  _623
REMARK  263  A    between atoms: _623  and  _624
REMARK  264  A    between atoms: _627  and  _629
REMARK  265  A    between atoms: _629  and  _630
REMARK  266  A    between atoms: _629  and  _632
REMARK  267  A    between atoms: _634  and  _636
REMARK  268  A    between atoms: _636  and  _637
REMARK  269  A    between atoms: _639  and  _641
REMARK  270  A    between atoms: _641  and  _642
REMARK  271  A    between atoms: _641  and  _644
REMARK  272  A    between atoms: _644  and  _645
REMARK                            x       y       z     vdW  Elec       q    Type
REMARK                         _______ _______ _______ _____ _____    ______ ____
ROOT
ATOM      1  CA  GLU A   3      52.676  46.981  63.653  0.00  0.00    +0.149 C 
ENDROOT
BRANCH   1   4
ATOM      2  C   VAL A   2      52.577  48.099  65.809  0.00  0.00    +0.241 C 
ATOM      3  O   VAL A   2      53.450  48.907  65.472  0.00  0.00    -0.273 OA
ATOM      4  N   GLU A   3      52.137  47.140  64.999  0.00  0.00    -0.297 N 
ATOM      5  H   GLU A   3      51.395  46.492  65.332  0.00  0.00    +0.150 HD
BRANCH   2   6
ATOM      6  CA  VAL A   2      51.959  48.147  67.212  0.00  0.00    +0.148 C 
BRANCH   6   9
ATOM      7  C   MET A   1      53.014  47.733  69.352  0.00  0.00    +0.238 C 
ATOM      8  O   MET A   1      52.056  47.053  69.742  0.00  0.00    -0.274 OA
ATOM      9  N   VAL A   2      53.041  48.323  68.164  0.00  0.00    -0.297 N 
ATOM     10  H   VAL A   2      53.852  48.922  67.910  0.00  0.00    +0.150 HD
BRANCH   7  11
ATOM     11  CA  MET A   1      54.234  47.958  70.246  0.00  0.00    +0.146 C 
BRANCH  11  12
ATOM     12  N   MET A   1      53.792  48.007  71.639  0.00  0.00    -0.238 NA
ATOM     13  H   MET A   1      52.991  47.411  71.929  0.00  0.00    +0.142 HD
ENDBRANCH  11  12
BRANCH  11  14
ATOM     14  CB  MET A   1      55.237  46.807  70.033  0.00  0.00    +0.038 C 
BRANCH  14  15
ATOM     15  CG  MET A   1      56.498  46.887  70.906  0.00  0.00    +0.060 C 
BRANCH  15  16
ATOM     16  SD  MET A   1      57.759  45.595  70.601  0.00  0.00    -0.139 S 
ATOM     17  CE  MET A   1      58.541  46.229  69.108  0.00  0.00    +0.069 C 
ENDBRANCH  15  16
ENDBRANCH  14  15
ENDBRANCH  11  14
ENDBRANCH   7  11
ENDBRANCH   6   9
BRANCH   6  18
ATOM     18  CB  VAL A   2      50.907  49.294  67.321  0.00  0.00    +0.027 C 
ATOM     19  CG2 VAL A   2      51.573  50.651  67.170  0.00  0.00    +0.002 C 
ATOM     20  CG1 VAL A   2      49.834  49.108  66.251  0.00  0.00    +0.002 C 
ENDBRANCH   6  18
ENDBRANCH   2   6
ENDBRANCH   1   4
BRANCH   1  21
ATOM     21  C   GLU A   3      51.913  47.787  62.603  0.00  0.00    +0.241 C 
ATOM     22  O   GLU A   3      50.701  47.599  62.389  0.00  0.00    -0.273 OA
ATOM     23  N   LYS A   4      52.641  48.694  61.957  0.00  0.00    -0.298 N 
ATOM     24  H   LYS A   4      53.643  48.804  62.214  0.00  0.00    +0.150 HD
BRANCH  23  25
ATOM     25  CA  LYS A   4      52.095  49.539  60.906  0.00  0.00    +0.137 C 
BRANCH  25  26
ATOM     26  C   LYS A   4      50.829  50.296  61.280  0.00  0.00    +0.227 C 
ATOM     27  O   LYS A   4      49.781  50.124  60.659  0.00  0.00    -0.286 OA
ENDBRANCH  25  26
BRANCH  25  28
ATOM     28  CB  LYS A   4      51.827  48.709  59.646  0.00  0.00    +0.028 C 
BRANCH  28  29
ATOM     29  CG  LYS A   4      53.011  47.852  59.187  0.00  0.00    -0.000 C 
BRANCH  29  30
ATOM     30  CD  LYS A   4      52.713  47.180  57.848  0.00  0.00    -0.024 C 
BRANCH  30  31
ATOM     31  CE  LYS A   4      53.485  45.873  57.670  0.00  0.00    -0.086 C 
BRANCH  31  32
ATOM     32  NZ  LYS A   4      54.952  46.054  57.596  0.00  0.00    +0.380 N 
ATOM     33  HZ1 LYS A   4      55.290  46.497  58.474  0.00  0.00    -0.089 HD
ATOM     34  HZ2 LYS A   4      55.409  45.127  57.475  0.00  0.00    -0.089 HD
ATOM     35  HZ3 LYS A   4      55.184  46.664  56.787  0.00  0.00    -0.089 HD
ENDBRANCH  31  32
ENDBRANCH  30  31
ENDBRANCH  29  30
ENDBRANCH  28  29
ENDBRANCH  25  28
ENDBRANCH  23  25
ENDBRANCH   1  21
BRANCH   1  36
ATOM     36  CB  GLU A   3      52.689  45.491  63.272  0.00  0.00    +0.041 C 
BRANCH  36  37
ATOM     37  CG  GLU A   3      53.225  45.163  61.878  0.00  0.00    +0.116 C 
BRANCH  37  38
ATOM     38  CD  GLU A   3      54.737  45.280  61.778  0.00  0.00    +0.365 C 
ATOM     39  OE2 GLU A   3      55.389  45.619  62.789  0.00  0.00    -0.246 OA
ATOM     40  OE1 GLU A   3      55.277  45.023  60.678  0.00  0.00    -0.246 OA
ENDBRANCH  37  38
ENDBRANCH  36  37
ENDBRANCH   1  36
TORSDOF 20
REMARK  Name = ../refined-set-2016/3juk/3juk_pocket.pdb
REMARK  272 active torsions:
REMARK  status: ('A' for Active; 'I' for Inactive)
REMARK    1  A    between atoms: _1  and  _3
REMARK    2  A    between atoms: _3  and  _4
REMARK    3  A    between atoms: _3  and  _6
REMARK    4  A    between atoms: _6  and  _7
REMARK    5  A    between atoms: _14  and  _15
REMARK    6  A    between atoms: _20  and  _22
REMARK    7  A    between atoms: _22  and  _23
REMARK    8  A    between atoms: _26  and  _28
REMARK    9  A    between atoms: _28  and  _29
REMARK   10  A    between atoms: _32  and  _34
REMARK   11  A    between atoms: _34  and  _35
REMARK   12  A    between atoms: _37  and  _39
REMARK   13  A    between atoms: _39  and  _40
REMARK   14  A    between atoms: _39  and  _42
REMARK   15  A    between atoms: _42  and  _43
REMARK   16  A    between atoms: _48  and  _49
REMARK   17  A    between atoms: _51  and  _53
REMARK   18  A    between atoms: _53  and  _54
REMARK   19  A    between atoms: _56  and  _58
REMARK   20  A    between atoms: _58  and  _59
REMARK   21  A    between atoms: _58  and  _61
REMARK   22  A    between atoms: _61  and  _62
REMARK   23  A    between atoms: _65  and  _67
REMARK   24  A    between atoms: _67  and  _68
REMARK   25  A    between atoms: _67  and  _70
REMARK   26  A    between atoms: _70  and  _71
REMARK   27  A    between atoms: _71  and  _72
REMARK   28  A    between atoms: _72  and  _73
REMARK   29  A    between atoms: _83  and  _84
REMARK   30  A    between atoms: _89  and  _91
REMARK   31  A    between atoms: _91  and  _92
REMARK   32  A    between atoms: _91  and  _94
REMARK   33  A    between atoms: _94  and  _95
REMARK   34  A    between atoms: _95  and  _96
REMARK   35  A    between atoms: _96  and  _97
REMARK   36  A    between atoms: _97  and  _98
REMARK   37  A    between atoms: _102  and  _104
REMARK   38  A    between atoms: _104  and  _105
REMARK   39  A    between atoms: _104  and  _107
REMARK   40  A    between atoms: _107  and  _108
REMARK   41  A    between atoms: _108  and  _109
REMARK   42  A    between atoms: _112  and  _114
REMARK   43  A    between atoms: _114  and  _115
REMARK   44  A    between atoms: _114  and  _117
REMARK   45  A    between atoms: _117  and  _118
REMARK   46  A    between atoms: _121  and  _123
REMARK   47  A    between atoms: _123  and  _124
REMARK   48  A    between atoms: _123  and  _126
REMARK   49  A    between atoms: _129  and  _131
REMARK   50  A    between atoms: _131  and  _132
REMARK   51  A    between atoms: _131  and  _134
REMARK   52  A    between atoms: _134  and  _135
REMARK   53  A    between atoms: _138  and  _140
REMARK   54  A    between atoms: _140  and  _141
REMARK   55  A    between atoms: _143  and  _145
REMARK   56  A    between atoms: _145  and  _146
REMARK   57  A    between atoms: _145  and  _148
REMARK   58  A    between atoms: _148  and  _149
REMARK   59  A    between atoms: _149  and  _150
REMARK   60  A    between atoms: _155  and  _157
REMARK   61  A    between atoms: _157  and  _158
REMARK   62  A    between atoms: _157  and  _160
REMARK   63  A    between atoms: _160  and  _161
REMARK   64  A    between atoms: _161  and  _162
REMARK   65  A    between atoms: _167  and  _169
REMARK   66  A    between atoms: _169  and  _170
REMARK   67  A    between atoms: _169  and  _172
REMARK   68  A    between atoms: _172  and  _173
REMARK   69  A    between atoms: _173  and  _174
REMARK   70  A    between atoms: _176  and  _178
REMARK   71  A    between atoms: _178  and  _179
REMARK   72  A    between atoms: _178  and  _181
REMARK   73  A    between atoms: _181  and  _182
REMARK   74  A    between atoms: _182  and  _183
REMARK   75  A    between atoms: _183  and  _184
REMARK   76  A    between atoms: _184  and  _185
REMARK   77  A    between atoms: _189  and  _191
REMARK   78  A    between atoms: _191  and  _192
REMARK   79  A    between atoms: _194  and  _196
REMARK   80  A    between atoms: _196  and  _197
REMARK   81  A    between atoms: _196  and  _199
REMARK   82  A    between atoms: _199  and  _200
REMARK   83  A    between atoms: _203  and  _205
REMARK   84  A    between atoms: _205  and  _206
REMARK   85  A    between atoms: _208  and  _210
REMARK   86  A    between atoms: _210  and  _211
REMARK   87  A    between atoms: _210  and  _213
REMARK   88  A    between atoms: _213  and  _214
REMARK   89  A    between atoms: _219  and  _221
REMARK   90  A    between atoms: _221  and  _222
REMARK   91  A    between atoms: _225  and  _227
REMARK   92  A    between atoms: _227  and  _228
REMARK   93  A    between atoms: _227  and  _230
REMARK   94  A    between atoms: _230  and  _231
REMARK   95  A    between atoms: _234  and  _236
REMARK   96  A    between atoms: _236  and  _237
REMARK   97  A    between atoms: _236  and  _239
REMARK   98  A    between atoms: _239  and  _240
REMARK   99  A    between atoms: _243  and  _245
REMARK  100  A    between atoms: _245  and  _246
REMARK  101  A    between atoms: _245  and  _248
REMARK  102  A    between atoms: _251  and  _253
REMARK  103  A    between atoms: _253  and  _254
REMARK  104  A    between atoms: _253  and  _256
REMARK  105  A    between atoms: _256  and  _257
REMARK  106  A    between atoms: _260  and  _262
REMARK  107  A    between atoms: _262  and  _263
REMARK  108  A    between atoms: _262  and  _265
REMARK  109  A    between atoms: _265  and  _266
REMARK  110  A    between atoms: _269  and  _271
REMARK  111  A    between atoms: _271  and  _272
REMARK  112  A    between atoms: _275  and  _277
REMARK  113  A    between atoms: _277  and  _278
REMARK  114  A    between atoms: _277  and  _280
REMARK  115  A    between atoms: _280  and  _281
REMARK  116  A    between atoms: _281  and  _282
REMARK  117  A    between atoms: _282  and  MG_647
REMARK  118  A    between atoms: _284  and  _286
REMARK  119  A    between atoms: _286  and  _287
REMARK  120  A    between atoms: _286  and  _289
REMARK  121  A    between atoms: _289  and  _290
REMARK  122  A    between atoms: _293  and  _295
REMARK  123  A    between atoms: _295  and  _296
REMARK  124  A    between atoms: _295  and  _298
REMARK  125  A    between atoms: _298  and  _299
REMARK  126  A    between atoms: _302  and  _304
REMARK  127  A    between atoms: _304  and  _305
REMARK  128  A    between atoms: _304  and  _307
REMARK  129  A    between atoms: _310  and  _312
REMARK  130  A    between atoms: _312  and  _313
REMARK  131  A    between atoms: _316  and  _318
REMARK  132  A    between atoms: _318  and  _319
REMARK  133  A    between atoms: _318  and  _321
REMARK  134  A    between atoms: _321  and  _322
REMARK  135  A    between atoms: _325  and  _327
REMARK  136  A    between atoms: _327  and  _328
REMARK  137  A    between atoms: _327  and  _330
REMARK  138  A    between atoms: _330  and  _331
REMARK  139  A    between atoms: _331  and  _332
REMARK  140  A    between atoms: _335  and  _337
REMARK  141  A    between atoms: _337  and  _338
REMARK  142  A    between atoms: _337  and  _340
REMARK  143  A    between atoms: _340  and  _341
REMARK  144  A    between atoms: _341  and  _342
REMARK  145  A    between atoms: _345  and  _347
REMARK  146  A    between atoms: _347  and  _348
REMARK  147  A    between atoms: _347  and  _350
REMARK  148  A    between atoms: _353  and  _355
REMARK  149  A    between atoms: _355  and  _356
REMARK  150  A    between atoms: _355  and  _358
REMARK  151  A    between atoms: _358  and  _359
REMARK  152  A    between atoms: _361  and  _363
REMARK  153  A    between atoms: _363  and  _364
REMARK  154  A    between atoms: _363  and  _366
REMARK  155  A    between atoms: _366  and  _367
REMARK  156  A    between atoms: _367  and  _368
REMARK  157  A    between atoms: _368  and  _369
REMARK  158  A    between atoms: _369  and  _370
REMARK  159  A    between atoms: _374  and  _376
REMARK  160  A    between atoms: _376  and  _377
REMARK  161  A    between atoms: _376  and  _379
REMARK  162  A    between atoms: _379  and  _380
REMARK  163  A    between atoms: _385  and  _386
REMARK  164  A    between atoms: _388  and  _390
REMARK  165  A    between atoms: _390  and  _391
REMARK  166  A    between atoms: _393  and  _395
REMARK  167  A    between atoms: _395  and  _396
REMARK  168  A    between atoms: _395  and  _398
REMARK  169  A    between atoms: _401  and  _403
REMARK  170  A    between atoms: _403  and  _404
REMARK  171  A    between atoms: _403  and  _406
REMARK  172  A    between atoms: _406  and  _407
REMARK  173  A    between atoms: _407  and  _408
REMARK  174  A    between atoms: _410  and  _412
REMARK  175  A    between atoms: _412  and  _413
REMARK  176  A    between atoms: _412  and  _415
REMARK  177  A    between atoms: _418  and  _420
REMARK  178  A    between atoms: _420  and  _421
REMARK  179  A    between atoms: _420  and  _423
REMARK  180  A    between atoms: _423  and  _424
REMARK  181  A    between atoms: _424  and  _425
REMARK  182  A    between atoms: _428  and  _430
REMARK  183  A    between atoms: _430  and  _431
REMARK  184  A    between atoms: _430  and  _433
REMARK  185  A    between atoms: _433  and  _434
REMARK  186  A    between atoms: _434  and  _435
REMARK  187  A    between atoms: _435  and  _436
REMARK  188  A    between atoms: _436  and  _437
REMARK  189  A    between atoms: _441  and  _443
REMARK  190  A    between atoms: _443  and  _444
REMARK  191  A    between atoms: _443  and  _446
REMARK  192  A    between atoms: _446  and  _447
REMARK  193  A    between atoms: _450  and  _452
REMARK  194  A    between atoms: _452  and  _453
REMARK  195  A    between atoms: _456  and  _458
REMARK  196  A    between atoms: _458  and  _459
REMARK  197  A    between atoms: _458  and  _461
REMARK  198  A    between atoms: _464  and  _466
REMARK  199  A    between atoms: _466  and  _467
REMARK  200  A    between atoms: _466  and  _469
REMARK  201  A    between atoms: _469  and  _470
REMARK  202  A    between atoms: _473  and  _475
REMARK  203  A    between atoms: _475  and  _476
REMARK  204  A    between atoms: _478  and  _480
REMARK  205  A    between atoms: _480  and  _481
REMARK  206  A    between atoms: _480  and  _483
REMARK  207  A    between atoms: _483  and  _484
REMARK  208  A    between atoms: _484  and  _485
REMARK  209  A    between atoms: _485  and  _486
REMARK  210  A    between atoms: _495  and  _497
REMARK  211  A    between atoms: _497  and  _498
REMARK  212  A    between atoms: _497  and  _500
REMARK  213  A    between atoms: _500  and  _501
REMARK  214  A    between atoms: _506  and  _507
REMARK  215  A    between atoms: _509  and  _511
REMARK  216  A    between atoms: _511  and  _512
REMARK  217  A    between atoms: _511  and  _514
REMARK  218  A    between atoms: _514  and  _515
REMARK  219  A    between atoms: _520  and  _522
REMARK  220  A    between atoms: _522  and  _523
REMARK  221  A    between atoms: _522  and  _525
REMARK  222  A    between atoms: _525  and  _526
REMARK  223  A    between atoms: _526  and  _527
REMARK  224  A    between atoms: _530  and  _532
REMARK  225  A    between atoms: _532  and  _533
REMARK  226  A    between atoms: _532  and  _535
REMARK  227  A    between atoms: _535  and  _536
REMARK  228  A    between atoms: _539  and  _541
REMARK  229  A    between atoms: _541  and  _542
REMARK  230  A    between atoms: _541  and  _544
REMARK  231  A    between atoms: _544  and  _545
REMARK  232  A    between atoms: _545  and  _546
REMARK  233  A    between atoms: _551  and  _553
REMARK  234  A    between atoms: _553  and  _554
REMARK  235  A    between atoms: _553  and  _556
REMARK  236  A    between atoms: _556  and  _557
REMARK  237  A    between atoms: _560  and  _562
REMARK  238  A    between atoms: _562  and  _563
REMARK  239  A    between atoms: _562  and  _565
REMARK  240  A    between atoms: _565  and  _566
REMARK  241  A    between atoms: _569  and  _571
REMARK  242  A    between atoms: _571  and  _572
REMARK  243  A    between atoms: _571  and  _574
REMARK  244  A    between atoms: _574  and  _575
REMARK  245  A    between atoms: _578  and  _580
REMARK  246  A    between atoms: _580  and  _581
REMARK  247  A    between atoms: _580  and  _583
REMARK  248  A    between atoms: _583  and  _584
REMARK  249  A    between atoms: _587  and  _589
REMARK  250  A    between atoms: _589  and  _590
REMARK  251  A    between atoms: _589  and  _592
REMARK  252  A    between atoms: _592  and  _593
REMARK  253  A    between atoms: _593  and  _594
REMARK  254  A    between atoms: _594  and  _595
REMARK  255  A    between atoms: _604  and  _606
REMARK  256  A    between atoms: _606  and  _607
REMARK  257  A    between atoms: _606  and  _609
REMARK  258  A    between atoms: _609  and  _610
REMARK  259  A    between atoms: _615  and  _616
REMARK  260  A    between atoms: _618  and  _620
REMARK  261  A    between atoms: _620  and  _621
REMARK  262  A    between atoms: _620  and  _623
REMARK  263  A    between atoms: _623  and  _624
REMARK  264  A    between atoms: _627  and  _629
REMARK  265  A    between atoms: _629  and  _630
REMARK  266  A    between atoms: _629  and  _632
REMARK  267  A    between atoms: _634  and  _636
REMARK  268  A    between atoms: _636  and  _637
REMARK  269  A    between atoms: _639  and  _641
REMARK  270  A    between atoms: _641  and  _642
REMARK  271  A    between atoms: _641  and  _644
REMARK  272  A    between atoms: _644  and  _645
REMARK                            x       y       z     vdW  Elec       q    Type
REMARK                         _______ _______ _______ _____ _____    ______ ____
ROOT
ATOM      1  C   ILE A   4      64.605  47.194  62.382  0.00  0.00    +0.241 C 
ATOM      2  O   ILE A   4      64.643  46.643  63.489  0.00  0.00    -0.273 OA
ATOM      3  N   GLY A   5      64.974  46.594  61.250  0.00  0.00    -0.295 N 
ATOM      4  H   GLY A   5      64.964  47.143  60.367  0.00  0.00    +0.150 HD
ENDROOT
BRANCH   3   5
ATOM      5  CA  GLY A   5      65.390  45.200  61.202  0.00  0.00    +0.176 C 
BRANCH   5   6
ATOM      6  C   GLY A   5      66.612  44.715  61.958  0.00  0.00    +0.243 C 
ATOM      7  N   ARG A   6      66.576  44.838  63.277  0.00  0.00    -0.297 N 
ATOM      8  H   ARG A   6      65.738  45.258  63.728  0.00  0.00    +0.150 HD
ATOM      9  O   GLY A   5      67.568  44.202  61.361  0.00  0.00    -0.273 OA
BRANCH   7  10
ATOM     10  CA  ARG A   6      67.689  44.396  64.108  0.00  0.00    +0.149 C 
BRANCH  10  11
ATOM     11  C   ARG A   6      67.152  43.984  65.479  0.00  0.00    +0.241 C 
ATOM     12  O   ARG A   6      66.448  44.766  66.123  0.00  0.00    -0.273 OA
ATOM     13  N   TYR A   7      67.471  42.763  65.919  0.00  0.00    -0.298 N 
ATOM     14  H   TYR A   7      68.062  42.143  65.330  0.00  0.00    +0.150 HD
BRANCH  13  15
ATOM     15  CA  TYR A   7      66.999  42.290  67.217  0.00  0.00    +0.141 C 
BRANCH  15  16
ATOM     16  C   TYR A   7      67.954  41.343  67.917  0.00  0.00    +0.227 C 
ATOM     17  O   TYR A   7      68.779  40.677  67.287  0.00  0.00    -0.286 OA
ENDBRANCH  15  16
BRANCH  15  18
ATOM     18  CB  TYR A   7      65.679  41.507  67.101  0.00  0.00    +0.054 C 
BRANCH  18  19
ATOM     19  CG  TYR A   7      64.619  42.045  66.177  0.00  0.00    -0.020 A 
ATOM     20  CD2 TYR A   7      63.466  42.644  66.679  0.00  0.00    -0.001 A 
ATOM     21  CE2 TYR A   7      62.431  43.057  65.828  0.00  0.00    +0.036 A 
ATOM     22  CZ  TYR A   7      62.557  42.876  64.460  0.00  0.00    +0.134 A 
ATOM     23  CE1 TYR A   7      63.700  42.293  63.932  0.00  0.00    +0.036 A 
ATOM     24  CD1 TYR A   7      64.728  41.878  64.795  0.00  0.00    -0.001 A 
BRANCH  22  25
ATOM     25  OH  TYR A   7      61.541  43.250  63.612  0.00  0.00    -0.506 OA
ATOM     26  HH  TYR A   7      60.803  43.647  64.139  0.00  0.00    +0.292 HD
ENDBRANCH  22  25
ENDBRANCH  18  19
ENDBRANCH  15  18
ENDBRANCH  13  15
ENDBRANCH  10  11
BRANCH  10  27
ATOM     27  CB  ARG A   6      68.711  45.526  64.263  0.00  0.00    +0.033 C 
BRANCH  27  28
ATOM     28  CG  ARG A   6      69.447  45.914  62.973  0.00  0.00    +0.045 C 
BRANCH  28  29
ATOM     29  CD  ARG A   6      70.208  44.741  62.404  0.00  0.00    +0.174 C 
BRANCH  29  30
ATOM     30  NE  ARG A   6      71.102  45.127  61.319  0.00  0.00    -0.265 N 
ATOM     31  HE  ARG A   6      72.125  45.115  61.505  0.00  0.00    +0.259 HD
ATOM     32  CZ  ARG A   6      70.696  45.492  60.111  0.00  0.00    +0.342 C 
ATOM     33  NH2 ARG A   6      69.412  45.528  59.837  0.00  0.00    -0.292 N 
ATOM     34 HH21 ARG A   6      68.717  45.271  60.567  0.00  0.00    +0.255 HD
ATOM     35 HH22 ARG A   6      69.090  45.814  58.890  0.00  0.00    +0.255 HD
ATOM     36  NH1 ARG A   6      71.573  45.793  59.171  0.00  0.00    -0.292 N 
ATOM     37 HH11 ARG A   6      72.592  45.745  59.375  0.00  0.00    +0.255 HD
ATOM     38 HH12 ARG A   6      71.245  46.078  58.226  0.00  0.00    +0.255 HD
ENDBRANCH  29  30
ENDBRANCH  28  29
ENDBRANCH  27  28
ENDBRANCH  10  27
ENDBRANCH   7  10
ENDBRANCH   5   6
ENDBRANCH   3   5
BRANCH   1  39
ATOM     39  CA  ILE A   4      64.127  48.648  62.255  0.00  0.00    +0.149 C 
BRANCH  39  41
ATOM     40  C   VAL A   3      62.128  49.366  63.424  0.00  0.00    +0.241 C 
ATOM     41  N   ILE A   4      63.417  49.016  63.487  0.00  0.00    -0.297 N 
ATOM     42  H   ILE A   4      63.913  49.004  64.401  0.00  0.00    +0.150 HD
ATOM     43  O   VAL A   3      61.526  49.488  62.358  0.00  0.00    -0.273 OA
BRANCH  40  44
ATOM     44  CA  VAL A   3      61.390  49.645  64.729  0.00  0.00    +0.149 C 
BRANCH  44  47
ATOM     45  C   ALA A   2      60.998  52.054  64.658  0.00  0.00    +0.241 C 
ATOM     46  O   ALA A   2      62.195  52.322  64.795  0.00  0.00    -0.273 OA
ATOM     47  N   VAL A   3      60.530  50.811  64.610  0.00  0.00    -0.297 N 
ATOM     48  H   VAL A   3      59.508  50.667  64.482  0.00  0.00    +0.150 HD
BRANCH  45  49
ATOM     49  CA  ALA A   2      59.946  53.157  64.521  0.00  0.00    +0.149 C 
ATOM     50  CB  ALA A   2      59.838  53.597  63.065  0.00  0.00    +0.031 C 
BRANCH  49  53
ATOM     51  C   LEU A   1      59.759  54.415  66.605  0.00  0.00    +0.238 C 
ATOM     52  O   LEU A   1      59.026  53.569  67.123  0.00  0.00    -0.274 OA
ATOM     53  N   ALA A   2      60.237  54.306  65.368  0.00  0.00    -0.297 N 
ATOM     54  H   ALA A   2      60.839  55.067  64.993  0.00  0.00    +0.150 HD
BRANCH  51  55
ATOM     55  CA  LEU A   1      60.147  55.683  67.359  0.00  0.00    +0.145 C 
BRANCH  55  56
ATOM     56  N   LEU A   1      59.031  56.600  67.206  0.00  0.00    -0.238 NA
ATOM     57  H   LEU A   1      58.258  56.575  67.901  0.00  0.00    +0.142 HD
ENDBRANCH  55  56
BRANCH  55  58
ATOM     58  CB  LEU A   1      60.387  55.382  68.843  0.00  0.00    +0.026 C 
BRANCH  58  59
ATOM     59  CG  LEU A   1      61.296  56.350  69.618  0.00  0.00    +0.002 C 
ATOM     60  CD2 LEU A   1      61.121  56.172  71.112  0.00  0.00    +0.000 C 
ATOM     61  CD1 LEU A   1      61.002  57.765  69.214  0.00  0.00    +0.000 C 
ENDBRANCH  58  59
ENDBRANCH  55  58
ENDBRANCH  51  55
ENDBRANCH  49  53
ENDBRANCH  45  49
ENDBRANCH  44  47
BRANCH  44  62
ATOM     62  CB  VAL A   3      60.540  48.391  65.043  0.00  0.00    +0.027 C 
ATOM     63  CG2 VAL A   3      59.732  48.600  66.312  0.00  0.00    +0.002 C 
ATOM     64  CG1 VAL A   3      61.437  47.161  65.133  0.00  0.00    +0.002 C 
ENDBRANCH  44  62
ENDBRANCH  40  44
ENDBRANCH  39  41
BRANCH  39  65
ATOM     65  CB  ILE A   4      65.347  49.553  61.912  0.00  0.00    +0.027 C 
ATOM     66  CG2 ILE A   4      64.970  51.023  62.064  0.00  0.00    +0.002 C 
BRANCH  65  67
ATOM     67  CG1 ILE A   4      66.550  49.180  62.778  0.00  0.00    +0.002 C 
ATOM     68  CD1 ILE A   4      67.867  49.485  62.114  0.00  0.00    +0.000 C 
ENDBRANCH  65  67
ENDBRANCH  39  65
ENDBRANCH   1  39
TORSDOF 26
REMARK  Name = ../refined-set-2016/3juk/3juk_pocket.pdb
REMARK  272 active torsions:
REMARK  status: ('A' for Active; 'I' for Inactive)
REMARK    1  A    between atoms: _1  and  _3
REMARK    2  A    between atoms: _3  and  _4
REMARK    3  A    between atoms: _3  and  _6
REMARK    4  A    between atoms: _6  and  _7
REMARK    5  A    between atoms: _14  and  _15
REMARK    6  A    between atoms: _20  and  _22
REMARK    7  A    between atoms: _22  and  _23
REMARK    8  A    between atoms: _26  and  _28
REMARK    9  A    between atoms: _28  and  _29
REMARK   10  A    between atoms: _32  and  _34
REMARK   11  A    between atoms: _34  and  _35
REMARK   12  A    between atoms: _37  and  _39
REMARK   13  A    between atoms: _39  and  _40
REMARK   14  A    between atoms: _39  and  _42
REMARK   15  A    between atoms: _42  and  _43
REMARK   16  A    between atoms: _48  and  _49
REMARK   17  A    between atoms: _51  and  _53
REMARK   18  A    between atoms: _53  and  _54
REMARK   19  A    between atoms: _56  and  _58
REMARK   20  A    between atoms: _58  and  _59
REMARK   21  A    between atoms: _58  and  _61
REMARK   22  A    between atoms: _61  and  _62
REMARK   23  A    between atoms: _65  and  _67
REMARK   24  A    between atoms: _67  and  _68
REMARK   25  A    between atoms: _67  and  _70
REMARK   26  A    between atoms: _70  and  _71
REMARK   27  A    between atoms: _71  and  _72
REMARK   28  A    between atoms: _72  and  _73
REMARK   29  A    between atoms: _83  and  _84
REMARK   30  A    between atoms: _89  and  _91
REMARK   31  A    between atoms: _91  and  _92
REMARK   32  A    between atoms: _91  and  _94
REMARK   33  A    between atoms: _94  and  _95
REMARK   34  A    between atoms: _95  and  _96
REMARK   35  A    between atoms: _96  and  _97
REMARK   36  A    between atoms: _97  and  _98
REMARK   37  A    between atoms: _102  and  _104
REMARK   38  A    between atoms: _104  and  _105
REMARK   39  A    between atoms: _104  and  _107
REMARK   40  A    between atoms: _107  and  _108
REMARK   41  A    between atoms: _108  and  _109
REMARK   42  A    between atoms: _112  and  _114
REMARK   43  A    between atoms: _114  and  _115
REMARK   44  A    between atoms: _114  and  _117
REMARK   45  A    between atoms: _117  and  _118
REMARK   46  A    between atoms: _121  and  _123
REMARK   47  A    between atoms: _123  and  _124
REMARK   48  A    between atoms: _123  and  _126
REMARK   49  A    between atoms: _129  and  _131
REMARK   50  A    between atoms: _131  and  _132
REMARK   51  A    between atoms: _131  and  _134
REMARK   52  A    between atoms: _134  and  _135
REMARK   53  A    between atoms: _138  and  _140
REMARK   54  A    between atoms: _140  and  _141
REMARK   55  A    between atoms: _143  and  _145
REMARK   56  A    between atoms: _145  and  _146
REMARK   57  A    between atoms: _145  and  _148
REMARK   58  A    between atoms: _148  and  _149
REMARK   59  A    between atoms: _149  and  _150
REMARK   60  A    between atoms: _155  and  _157
REMARK   61  A    between atoms: _157  and  _158
REMARK   62  A    between atoms: _157  and  _160
REMARK   63  A    between atoms: _160  and  _161
REMARK   64  A    between atoms: _161  and  _162
REMARK   65  A    between atoms: _167  and  _169
REMARK   66  A    between atoms: _169  and  _170
REMARK   67  A    between atoms: _169  and  _172
REMARK   68  A    between atoms: _172  and  _173
REMARK   69  A    between atoms: _173  and  _174
REMARK   70  A    between atoms: _176  and  _178
REMARK   71  A    between atoms: _178  and  _179
REMARK   72  A    between atoms: _178  and  _181
REMARK   73  A    between atoms: _181  and  _182
REMARK   74  A    between atoms: _182  and  _183
REMARK   75  A    between atoms: _183  and  _184
REMARK   76  A    between atoms: _184  and  _185
REMARK   77  A    between atoms: _189  and  _191
REMARK   78  A    between atoms: _191  and  _192
REMARK   79  A    between atoms: _194  and  _196
REMARK   80  A    between atoms: _196  and  _197
REMARK   81  A    between atoms: _196  and  _199
REMARK   82  A    between atoms: _199  and  _200
REMARK   83  A    between atoms: _203  and  _205
REMARK   84  A    between atoms: _205  and  _206
REMARK   85  A    between atoms: _208  and  _210
REMARK   86  A    between atoms: _210  and  _211
REMARK   87  A    between atoms: _210  and  _213
REMARK   88  A    between atoms: _213  and  _214
REMARK   89  A    between atoms: _219  and  _221
REMARK   90  A    between atoms: _221  and  _222
REMARK   91  A    between atoms: _225  and  _227
REMARK   92  A    between atoms: _227  and  _228
REMARK   93  A    between atoms: _227  and  _230
REMARK   94  A    between atoms: _230  and  _231
REMARK   95  A    between atoms: _234  and  _236
REMARK   96  A    between atoms: _236  and  _237
REMARK   97  A    between atoms: _236  and  _239
REMARK   98  A    between atoms: _239  and  _240
REMARK   99  A    between atoms: _243  and  _245
REMARK  100  A    between atoms: _245  and  _246
REMARK  101  A    between atoms: _245  and  _248
REMARK  102  A    between atoms: _251  and  _253
REMARK  103  A    between atoms: _253  and  _254
REMARK  104  A    between atoms: _253  and  _256
REMARK  105  A    between atoms: _256  and  _257
REMARK  106  A    between atoms: _260  and  _262
REMARK  107  A    between atoms: _262  and  _263
REMARK  108  A    between atoms: _262  and  _265
REMARK  109  A    between atoms: _265  and  _266
REMARK  110  A    between atoms: _269  and  _271
REMARK  111  A    between atoms: _271  and  _272
REMARK  112  A    between atoms: _275  and  _277
REMARK  113  A    between atoms: _277  and  _278
REMARK  114  A    between atoms: _277  and  _280
REMARK  115  A    between atoms: _280  and  _281
REMARK  116  A    between atoms: _281  and  _282
REMARK  117  A    between atoms: _282  and  MG_647
REMARK  118  A    between atoms: _284  and  _286
REMARK  119  A    between atoms: _286  and  _287
REMARK  120  A    between atoms: _286  and  _289
REMARK  121  A    between atoms: _289  and  _290
REMARK  122  A    between atoms: _293  and  _295
REMARK  123  A    between atoms: _295  and  _296
REMARK  124  A    between atoms: _295  and  _298
REMARK  125  A    between atoms: _298  and  _299
REMARK  126  A    between atoms: _302  and  _304
REMARK  127  A    between atoms: _304  and  _305
REMARK  128  A    between atoms: _304  and  _307
REMARK  129  A    between atoms: _310  and  _312
REMARK  130  A    between atoms: _312  and  _313
REMARK  131  A    between atoms: _316  and  _318
REMARK  132  A    between atoms: _318  and  _319
REMARK  133  A    between atoms: _318  and  _321
REMARK  134  A    between atoms: _321  and  _322
REMARK  135  A    between atoms: _325  and  _327
REMARK  136  A    between atoms: _327  and  _328
REMARK  137  A    between atoms: _327  and  _330
REMARK  138  A    between atoms: _330  and  _331
REMARK  139  A    between atoms: _331  and  _332
REMARK  140  A    between atoms: _335  and  _337
REMARK  141  A    between atoms: _337  and  _338
REMARK  142  A    between atoms: _337  and  _340
REMARK  143  A    between atoms: _340  and  _341
REMARK  144  A    between atoms: _341  and  _342
REMARK  145  A    between atoms: _345  and  _347
REMARK  146  A    between atoms: _347  and  _348
REMARK  147  A    between atoms: _347  and  _350
REMARK  148  A    between atoms: _353  and  _355
REMARK  149  A    between atoms: _355  and  _356
REMARK  150  A    between atoms: _355  and  _358
REMARK  151  A    between atoms: _358  and  _359
REMARK  152  A    between atoms: _361  and  _363
REMARK  153  A    between atoms: _363  and  _364
REMARK  154  A    between atoms: _363  and  _366
REMARK  155  A    between atoms: _366  and  _367
REMARK  156  A    between atoms: _367  and  _368
REMARK  157  A    between atoms: _368  and  _369
REMARK  158  A    between atoms: _369  and  _370
REMARK  159  A    between atoms: _374  and  _376
REMARK  160  A    between atoms: _376  and  _377
REMARK  161  A    between atoms: _376  and  _379
REMARK  162  A    between atoms: _379  and  _380
REMARK  163  A    between atoms: _385  and  _386
REMARK  164  A    between atoms: _388  and  _390
REMARK  165  A    between atoms: _390  and  _391
REMARK  166  A    between atoms: _393  and  _395
REMARK  167  A    between atoms: _395  and  _396
REMARK  168  A    between atoms: _395  and  _398
REMARK  169  A    between atoms: _401  and  _403
REMARK  170  A    between atoms: _403  and  _404
REMARK  171  A    between atoms: _403  and  _406
REMARK  172  A    between atoms: _406  and  _407
REMARK  173  A    between atoms: _407  and  _408
REMARK  174  A    between atoms: _410  and  _412
REMARK  175  A    between atoms: _412  and  _413
REMARK  176  A    between atoms: _412  and  _415
REMARK  177  A    between atoms: _418  and  _420
REMARK  178  A    between atoms: _420  and  _421
REMARK  179  A    between atoms: _420  and  _423
REMARK  180  A    between atoms: _423  and  _424
REMARK  181  A    between atoms: _424  and  _425
REMARK  182  A    between atoms: _428  and  _430
REMARK  183  A    between atoms: _430  and  _431
REMARK  184  A    between atoms: _430  and  _433
REMARK  185  A    between atoms: _433  and  _434
REMARK  186  A    between atoms: _434  and  _435
REMARK  187  A    between atoms: _435  and  _436
REMARK  188  A    between atoms: _436  and  _437
REMARK  189  A    between atoms: _441  and  _443
REMARK  190  A    between atoms: _443  and  _444
REMARK  191  A    between atoms: _443  and  _446
REMARK  192  A    between atoms: _446  and  _447
REMARK  193  A    between atoms: _450  and  _452
REMARK  194  A    between atoms: _452  and  _453
REMARK  195  A    between atoms: _456  and  _458
REMARK  196  A    between atoms: _458  and  _459
REMARK  197  A    between atoms: _458  and  _461
REMARK  198  A    between atoms: _464  and  _466
REMARK  199  A    between atoms: _466  and  _467
REMARK  200  A    between atoms: _466  and  _469
REMARK  201  A    between atoms: _469  and  _470
REMARK  202  A    between atoms: _473  and  _475
REMARK  203  A    between atoms: _475  and  _476
REMARK  204  A    between atoms: _478  and  _480
REMARK  205  A    between atoms: _480  and  _481
REMARK  206  A    between atoms: _480  and  _483
REMARK  207  A    between atoms: _483  and  _484
REMARK  208  A    between atoms: _484  and  _485
REMARK  209  A    between atoms: _485  and  _486
REMARK  210  A    between atoms: _495  and  _497
REMARK  211  A    between atoms: _497  and  _498
REMARK  212  A    between atoms: _497  and  _500
REMARK  213  A    between atoms: _500  and  _501
REMARK  214  A    between atoms: _506  and  _507
REMARK  215  A    between atoms: _509  and  _511
REMARK  216  A    between atoms: _511  and  _512
REMARK  217  A    between atoms: _511  and  _514
REMARK  218  A    between atoms: _514  and  _515
REMARK  219  A    between atoms: _520  and  _522
REMARK  220  A    between atoms: _522  and  _523
REMARK  221  A    between atoms: _522  and  _525
REMARK  222  A    between atoms: _525  and  _526
REMARK  223  A    between atoms: _526  and  _527
REMARK  224  A    between atoms: _530  and  _532
REMARK  225  A    between atoms: _532  and  _533
REMARK  226  A    between atoms: _532  and  _535
REMARK  227  A    between atoms: _535  and  _536
REMARK  228  A    between atoms: _539  and  _541
REMARK  229  A    between atoms: _541  and  _542
REMARK  230  A    between atoms: _541  and  _544
REMARK  231  A    between atoms: _544  and  _545
REMARK  232  A    between atoms: _545  and  _546
REMARK  233  A    between atoms: _551  and  _553
REMARK  234  A    between atoms: _553  and  _554
REMARK  235  A    between atoms: _553  and  _556
REMARK  236  A    between atoms: _556  and  _557
REMARK  237  A    between atoms: _560  and  _562
REMARK  238  A    between atoms: _562  and  _563
REMARK  239  A    between atoms: _562  and  _565
REMARK  240  A    between atoms: _565  and  _566
REMARK  241  A    between atoms: _569  and  _571
REMARK  242  A    between atoms: _571  and  _572
REMARK  243  A    between atoms: _571  and  _574
REMARK  244  A    between atoms: _574  and  _575
REMARK  245  A    between atoms: _578  and  _580
REMARK  246  A    between atoms: _580  and  _581
REMARK  247  A    between atoms: _580  and  _583
REMARK  248  A    between atoms: _583  and  _584
REMARK  249  A    between atoms: _587  and  _589
REMARK  250  A    between atoms: _589  and  _590
REMARK  251  A    between atoms: _589  and  _592
REMARK  252  A    between atoms: _592  and  _593
REMARK  253  A    between atoms: _593  and  _594
REMARK  254  A    between atoms: _594  and  _595
REMARK  255  A    between atoms: _604  and  _606
REMARK  256  A    between atoms: _606  and  _607
REMARK  257  A    between atoms: _606  and  _609
REMARK  258  A    between atoms: _609  and  _610
REMARK  259  A    between atoms: _615  and  _616
REMARK  260  A    between atoms: _618  and  _620
REMARK  261  A    between atoms: _620  and  _621
REMARK  262  A    between atoms: _620  and  _623
REMARK  263  A    between atoms: _623  and  _624
REMARK  264  A    between atoms: _627  and  _629
REMARK  265  A    between atoms: _629  and  _630
REMARK  266  A    between atoms: _629  and  _632
REMARK  267  A    between atoms: _634  and  _636
REMARK  268  A    between atoms: _636  and  _637
REMARK  269  A    between atoms: _639  and  _641
REMARK  270  A    between atoms: _641  and  _642
REMARK  271  A    between atoms: _641  and  _644
REMARK  272  A    between atoms: _644  and  _645
REMARK                            x       y       z     vdW  Elec       q    Type
REMARK                         _______ _______ _______ _____ _____    ______ ____
ROOT
ATOM      1  CB  ASN A   1      49.537  41.774  56.252  0.00  0.00    +0.110 C 
ENDROOT
BRANCH   1   2
ATOM      2  CG  ASN A   1      49.761  43.273  56.081  0.00  0.00    +0.221 C 
ATOM      3  OD1 ASN A   1      50.901  43.749  56.106  0.00  0.00    -0.275 OA
ATOM      4  ND2 ASN A   1      48.677  44.022  55.895  0.00  0.00    -0.329 N 
ATOM      5 HD21 ASN A   1      47.736  43.580  55.881  0.00  0.00    +0.145 HD
ATOM      6 HD22 ASN A   1      48.771  45.049  55.764  0.00  0.00    +0.145 HD
ENDBRANCH   1   2
BRANCH   1   7
ATOM      7  CA  ASN A   1      48.152  41.442  56.823  0.00  0.00    +0.142 C 
BRANCH   7   8
ATOM      8  N   ASN A   1      47.965  42.121  58.108  0.00  0.00    -0.239 NA
ATOM      9  H   ASN A   1      47.198  42.817  58.197  0.00  0.00    +0.142 HD
ENDBRANCH   7   8
BRANCH   7  10
ATOM     10  C   ASN A   1      48.014  39.929  56.974  0.00  0.00    +0.225 C 
ATOM     11  O   ASN A   1      48.533  39.169  56.159  0.00  0.00    -0.287 OA
ENDBRANCH   7  10
ENDBRANCH   1   7
TORSDOF 4
REMARK  Name = ../refined-set-2016/3juk/3juk_pocket.pdb
REMARK  272 active torsions:
REMARK  status: ('A' for Active; 'I' for Inactive)
REMARK    1  A    between atoms: _1  and  _3
REMARK    2  A    between atoms: _3  and  _4
REMARK    3  A    between atoms: _3  and  _6
REMARK    4  A    between atoms: _6  and  _7
REMARK    5  A    between atoms: _14  and  _15
REMARK    6  A    between atoms: _20  and  _22
REMARK    7  A    between atoms: _22  and  _23
REMARK    8  A    between atoms: _26  and  _28
REMARK    9  A    between atoms: _28  and  _29
REMARK   10  A    between atoms: _32  and  _34
REMARK   11  A    between atoms: _34  and  _35
REMARK   12  A    between atoms: _37  and  _39
REMARK   13  A    between atoms: _39  and  _40
REMARK   14  A    between atoms: _39  and  _42
REMARK   15  A    between atoms: _42  and  _43
REMARK   16  A    between atoms: _48  and  _49
REMARK   17  A    between atoms: _51  and  _53
REMARK   18  A    between atoms: _53  and  _54
REMARK   19  A    between atoms: _56  and  _58
REMARK   20  A    between atoms: _58  and  _59
REMARK   21  A    between atoms: _58  and  _61
REMARK   22  A    between atoms: _61  and  _62
REMARK   23  A    between atoms: _65  and  _67
REMARK   24  A    between atoms: _67  and  _68
REMARK   25  A    between atoms: _67  and  _70
REMARK   26  A    between atoms: _70  and  _71
REMARK   27  A    between atoms: _71  and  _72
REMARK   28  A    between atoms: _72  and  _73
REMARK   29  A    between atoms: _83  and  _84
REMARK   30  A    between atoms: _89  and  _91
REMARK   31  A    between atoms: _91  and  _92
REMARK   32  A    between atoms: _91  and  _94
REMARK   33  A    between atoms: _94  and  _95
REMARK   34  A    between atoms: _95  and  _96
REMARK   35  A    between atoms: _96  and  _97
REMARK   36  A    between atoms: _97  and  _98
REMARK   37  A    between atoms: _102  and  _104
REMARK   38  A    between atoms: _104  and  _105
REMARK   39  A    between atoms: _104  and  _107
REMARK   40  A    between atoms: _107  and  _108
REMARK   41  A    between atoms: _108  and  _109
REMARK   42  A    between atoms: _112  and  _114
REMARK   43  A    between atoms: _114  and  _115
REMARK   44  A    between atoms: _114  and  _117
REMARK   45  A    between atoms: _117  and  _118
REMARK   46  A    between atoms: _121  and  _123
REMARK   47  A    between atoms: _123  and  _124
REMARK   48  A    between atoms: _123  and  _126
REMARK   49  A    between atoms: _129  and  _131
REMARK   50  A    between atoms: _131  and  _132
REMARK   51  A    between atoms: _131  and  _134
REMARK   52  A    between atoms: _134  and  _135
REMARK   53  A    between atoms: _138  and  _140
REMARK   54  A    between atoms: _140  and  _141
REMARK   55  A    between atoms: _143  and  _145
REMARK   56  A    between atoms: _145  and  _146
REMARK   57  A    between atoms: _145  and  _148
REMARK   58  A    between atoms: _148  and  _149
REMARK   59  A    between atoms: _149  and  _150
REMARK   60  A    between atoms: _155  and  _157
REMARK   61  A    between atoms: _157  and  _158
REMARK   62  A    between atoms: _157  and  _160
REMARK   63  A    between atoms: _160  and  _161
REMARK   64  A    between atoms: _161  and  _162
REMARK   65  A    between atoms: _167  and  _169
REMARK   66  A    between atoms: _169  and  _170
REMARK   67  A    between atoms: _169  and  _172
REMARK   68  A    between atoms: _172  and  _173
REMARK   69  A    between atoms: _173  and  _174
REMARK   70  A    between atoms: _176  and  _178
REMARK   71  A    between atoms: _178  and  _179
REMARK   72  A    between atoms: _178  and  _181
REMARK   73  A    between atoms: _181  and  _182
REMARK   74  A    between atoms: _182  and  _183
REMARK   75  A    between atoms: _183  and  _184
REMARK   76  A    between atoms: _184  and  _185
REMARK   77  A    between atoms: _189  and  _191
REMARK   78  A    between atoms: _191  and  _192
REMARK   79  A    between atoms: _194  and  _196
REMARK   80  A    between atoms: _196  and  _197
REMARK   81  A    between atoms: _196  and  _199
REMARK   82  A    between atoms: _199  and  _200
REMARK   83  A    between atoms: _203  and  _205
REMARK   84  A    between atoms: _205  and  _206
REMARK   85  A    between atoms: _208  and  _210
REMARK   86  A    between atoms: _210  and  _211
REMARK   87  A    between atoms: _210  and  _213
REMARK   88  A    between atoms: _213  and  _214
REMARK   89  A    between atoms: _219  and  _221
REMARK   90  A    between atoms: _221  and  _222
REMARK   91  A    between atoms: _225  and  _227
REMARK   92  A    between atoms: _227  and  _228
REMARK   93  A    between atoms: _227  and  _230
REMARK   94  A    between atoms: _230  and  _231
REMARK   95  A    between atoms: _234  and  _236
REMARK   96  A    between atoms: _236  and  _237
REMARK   97  A    between atoms: _236  and  _239
REMARK   98  A    between atoms: _239  and  _240
REMARK   99  A    between atoms: _243  and  _245
REMARK  100  A    between atoms: _245  and  _246
REMARK  101  A    between atoms: _245  and  _248
REMARK  102  A    between atoms: _251  and  _253
REMARK  103  A    between atoms: _253  and  _254
REMARK  104  A    between atoms: _253  and  _256
REMARK  105  A    between atoms: _256  and  _257
REMARK  106  A    between atoms: _260  and  _262
REMARK  107  A    between atoms: _262  and  _263
REMARK  108  A    between atoms: _262  and  _265
REMARK  109  A    between atoms: _265  and  _266
REMARK  110  A    between atoms: _269  and  _271
REMARK  111  A    between atoms: _271  and  _272
REMARK  112  A    between atoms: _275  and  _277
REMARK  113  A    between atoms: _277  and  _278
REMARK  114  A    between atoms: _277  and  _280
REMARK  115  A    between atoms: _280  and  _281
REMARK  116  A    between atoms: _281  and  _282
REMARK  117  A    between atoms: _282  and  MG_647
REMARK  118  A    between atoms: _284  and  _286
REMARK  119  A    between atoms: _286  and  _287
REMARK  120  A    between atoms: _286  and  _289
REMARK  121  A    between atoms: _289  and  _290
REMARK  122  A    between atoms: _293  and  _295
REMARK  123  A    between atoms: _295  and  _296
REMARK  124  A    between atoms: _295  and  _298
REMARK  125  A    between atoms: _298  and  _299
REMARK  126  A    between atoms: _302  and  _304
REMARK  127  A    between atoms: _304  and  _305
REMARK  128  A    between atoms: _304  and  _307
REMARK  129  A    between atoms: _310  and  _312
REMARK  130  A    between atoms: _312  and  _313
REMARK  131  A    between atoms: _316  and  _318
REMARK  132  A    between atoms: _318  and  _319
REMARK  133  A    between atoms: _318  and  _321
REMARK  134  A    between atoms: _321  and  _322
REMARK  135  A    between atoms: _325  and  _327
REMARK  136  A    between atoms: _327  and  _328
REMARK  137  A    between atoms: _327  and  _330
REMARK  138  A    between atoms: _330  and  _331
REMARK  139  A    between atoms: _331  and  _332
REMARK  140  A    between atoms: _335  and  _337
REMARK  141  A    between atoms: _337  and  _338
REMARK  142  A    between atoms: _337  and  _340
REMARK  143  A    between atoms: _340  and  _341
REMARK  144  A    between atoms: _341  and  _342
REMARK  145  A    between atoms: _345  and  _347
REMARK  146  A    between atoms: _347  and  _348
REMARK  147  A    between atoms: _347  and  _350
REMARK  148  A    between atoms: _353  and  _355
REMARK  149  A    between atoms: _355  and  _356
REMARK  150  A    between atoms: _355  and  _358
REMARK  151  A    between atoms: _358  and  _359
REMARK  152  A    between atoms: _361  and  _363
REMARK  153  A    between atoms: _363  and  _364
REMARK  154  A    between atoms: _363  and  _366
REMARK  155  A    between atoms: _366  and  _367
REMARK  156  A    between atoms: _367  and  _368
REMARK  157  A    between atoms: _368  and  _369
REMARK  158  A    between atoms: _369  and  _370
REMARK  159  A    between atoms: _374  and  _376
REMARK  160  A    between atoms: _376  and  _377
REMARK  161  A    between atoms: _376  and  _379
REMARK  162  A    between atoms: _379  and  _380
REMARK  163  A    between atoms: _385  and  _386
REMARK  164  A    between atoms: _388  and  _390
REMARK  165  A    between atoms: _390  and  _391
REMARK  166  A    between atoms: _393  and  _395
REMARK  167  A    between atoms: _395  and  _396
REMARK  168  A    between atoms: _395  and  _398
REMARK  169  A    between atoms: _401  and  _403
REMARK  170  A    between atoms: _403  and  _404
REMARK  171  A    between atoms: _403  and  _406
REMARK  172  A    between atoms: _406  and  _407
REMARK  173  A    between atoms: _407  and  _408
REMARK  174  A    between atoms: _410  and  _412
REMARK  175  A    between atoms: _412  and  _413
REMARK  176  A    between atoms: _412  and  _415
REMARK  177  A    between atoms: _418  and  _420
REMARK  178  A    between atoms: _420  and  _421
REMARK  179  A    between atoms: _420  and  _423
REMARK  180  A    between atoms: _423  and  _424
REMARK  181  A    between atoms: _424  and  _425
REMARK  182  A    between atoms: _428  and  _430
REMARK  183  A    between atoms: _430  and  _431
REMARK  184  A    between atoms: _430  and  _433
REMARK  185  A    between atoms: _433  and  _434
REMARK  186  A    between atoms: _434  and  _435
REMARK  187  A    between atoms: _435  and  _436
REMARK  188  A    between atoms: _436  and  _437
REMARK  189  A    between atoms: _441  and  _443
REMARK  190  A    between atoms: _443  and  _444
REMARK  191  A    between atoms: _443  and  _446
REMARK  192  A    between atoms: _446  and  _447
REMARK  193  A    between atoms: _450  and  _452
REMARK  194  A    between atoms: _452  and  _453
REMARK  195  A    between atoms: _456  and  _458
REMARK  196  A    between atoms: _458  and  _459
REMARK  197  A    between atoms: _458  and  _461
REMARK  198  A    between atoms: _464  and  _466
REMARK  199  A    between atoms: _466  and  _467
REMARK  200  A    between atoms: _466  and  _469
REMARK  201  A    between atoms: _469  and  _470
REMARK  202  A    between atoms: _473  and  _475
REMARK  203  A    between atoms: _475  and  _476
REMARK  204  A    between atoms: _478  and  _480
REMARK  205  A    between atoms: _480  and  _481
REMARK  206  A    between atoms: _480  and  _483
REMARK  207  A    between atoms: _483  and  _484
REMARK  208  A    between atoms: _484  and  _485
REMARK  209  A    between atoms: _485  and  _486
REMARK  210  A    between atoms: _495  and  _497
REMARK  211  A    between atoms: _497  and  _498
REMARK  212  A    between atoms: _497  and  _500
REMARK  213  A    between atoms: _500  and  _501
REMARK  214  A    between atoms: _506  and  _507
REMARK  215  A    between atoms: _509  and  _511
REMARK  216  A    between atoms: _511  and  _512
REMARK  217  A    between atoms: _511  and  _514
REMARK  218  A    between atoms: _514  and  _515
REMARK  219  A    between atoms: _520  and  _522
REMARK  220  A    between atoms: _522  and  _523
REMARK  221  A    between atoms: _522  and  _525
REMARK  222  A    between atoms: _525  and  _526
REMARK  223  A    between atoms: _526  and  _527
REMARK  224  A    between atoms: _530  and  _532
REMARK  225  A    between atoms: _532  and  _533
REMARK  226  A    between atoms: _532  and  _535
REMARK  227  A    between atoms: _535  and  _536
REMARK  228  A    between atoms: _539  and  _541
REMARK  229  A    between atoms: _541  and  _542
REMARK  230  A    between atoms: _541  and  _544
REMARK  231  A    between atoms: _544  and  _545
REMARK  232  A    between atoms: _545  and  _546
REMARK  233  A    between atoms: _551  and  _553
REMARK  234  A    between atoms: _553  and  _554
REMARK  235  A    between atoms: _553  and  _556
REMARK  236  A    between atoms: _556  and  _557
REMARK  237  A    between atoms: _560  and  _562
REMARK  238  A    between atoms: _562  and  _563
REMARK  239  A    between atoms: _562  and  _565
REMARK  240  A    between atoms: _565  and  _566
REMARK  241  A    between atoms: _569  and  _571
REMARK  242  A    between atoms: _571  and  _572
REMARK  243  A    between atoms: _571  and  _574
REMARK  244  A    between atoms: _574  and  _575
REMARK  245  A    between atoms: _578  and  _580
REMARK  246  A    between atoms: _580  and  _581
REMARK  247  A    between atoms: _580  and  _583
REMARK  248  A    between atoms: _583  and  _584
REMARK  249  A    between atoms: _587  and  _589
REMARK  250  A    between atoms: _589  and  _590
REMARK  251  A    between atoms: _589  and  _592
REMARK  252  A    between atoms: _592  and  _593
REMARK  253  A    between atoms: _593  and  _594
REMARK  254  A    between atoms: _594  and  _595
REMARK  255  A    between atoms: _604  and  _606
REMARK  256  A    between atoms: _606  and  _607
REMARK  257  A    between atoms: _606  and  _609
REMARK  258  A    between atoms: _609  and  _610
REMARK  259  A    between atoms: _615  and  _616
REMARK  260  A    between atoms: _618  and  _620
REMARK  261  A    between atoms: _620  and  _621
REMARK  262  A    between atoms: _620  and  _623
REMARK  263  A    between atoms: _623  and  _624
REMARK  264  A    between atoms: _627  and  _629
REMARK  265  A    between atoms: _629  and  _630
REMARK  266  A    between atoms: _629  and  _632
REMARK  267  A    between atoms: _634  and  _636
REMARK  268  A    between atoms: _636  and  _637
REMARK  269  A    between atoms: _639  and  _641
REMARK  270  A    between atoms: _641  and  _642
REMARK  271  A    between atoms: _641  and  _644
REMARK  272  A    between atoms: _644  and  _645
REMARK                            x       y       z     vdW  Elec       q    Type
REMARK                         _______ _______ _______ _____ _____    ______ ____
ROOT
ATOM      1  CA  GLN A   3      54.167  39.395  63.506  0.00  0.00    +0.149 C 
ENDROOT
BRANCH   1   3
ATOM      2  C   ILE A   2      53.422  37.286  62.523  0.00  0.00    +0.241 C 
ATOM      3  N   GLN A   3      53.206  38.311  63.333  0.00  0.00    -0.297 N 
ATOM      4  H   GLN A   3      52.315  38.345  63.868  0.00  0.00    +0.150 HD
ATOM      5  O   ILE A   2      54.460  37.157  61.879  0.00  0.00    -0.273 OA
BRANCH   2   6
ATOM      6  CA  ILE A   2      52.280  36.265  62.414  0.00  0.00    +0.148 C 
BRANCH   6   9
ATOM      7  C   GLU A   1      51.137  37.353  60.581  0.00  0.00    +0.238 C 
ATOM      8  O   GLU A   1      50.823  38.294  61.303  0.00  0.00    -0.274 OA
ATOM      9  N   ILE A   2      51.821  36.313  61.033  0.00  0.00    -0.297 N 
ATOM     10  H   ILE A   2      52.033  35.521  60.394  0.00  0.00    +0.150 HD
BRANCH   7  11
ATOM     11  CA  GLU A   1      50.740  37.325  59.103  0.00  0.00    +0.145 C 
BRANCH  11  12
ATOM     12  N   GLU A   1      49.430  37.947  58.939  0.00  0.00    -0.238 NA
ATOM     13  H   GLU A   1      49.305  38.934  59.240  0.00  0.00    +0.142 HD
ENDBRANCH  11  12
BRANCH  11  14
ATOM     14  CB  GLU A   1      51.793  38.084  58.290  0.00  0.00    +0.038 C 
BRANCH  14  15
ATOM     15  CG  GLU A   1      51.732  37.870  56.789  0.00  0.00    +0.116 C 
BRANCH  15  16
ATOM     16  CD  GLU A   1      52.681  38.787  56.023  0.00  0.00    +0.365 C 
ATOM     17  OE2 GLU A   1      53.881  38.841  56.368  0.00  0.00    -0.246 OA
ATOM     18  OE1 GLU A   1      52.223  39.452  55.070  0.00  0.00    -0.246 OA
ENDBRANCH  15  16
ENDBRANCH  14  15
ENDBRANCH  11  14
ENDBRANCH   7  11
ENDBRANCH   6   9
BRANCH   6  19
ATOM     19  CB  ILE A   2      52.754  34.837  62.771  0.00  0.00    +0.027 C 
ATOM     20  CG2 ILE A   2      53.298  34.794  64.203  0.00  0.00    +0.002 C 
BRANCH  19  21
ATOM     21  CG1 ILE A   2      51.578  33.863  62.598  0.00  0.00    +0.002 C 
ATOM     22  CD1 ILE A   2      51.951  32.393  62.754  0.00  0.00    +0.000 C 
ENDBRANCH  19  21
ENDBRANCH   6  19
ENDBRANCH   2   6
ENDBRANCH   1   3
BRANCH   1  23
ATOM     23  C   GLN A   3      55.093  39.211  64.691  0.00  0.00    +0.241 C 
ATOM     24  O   GLN A   3      54.645  38.868  65.784  0.00  0.00    -0.273 OA
ATOM     25  N   ILE A   4      56.382  39.448  64.486  0.00  0.00    -0.297 N 
ATOM     26  H   ILE A   4      56.717  39.711  63.537  0.00  0.00    +0.150 HD
BRANCH  25  27
ATOM     27  CA  ILE A   4      57.327  39.340  65.587  0.00  0.00    +0.149 C 
BRANCH  27  28
ATOM     28  C   ILE A   4      56.988  40.509  66.508  0.00  0.00    +0.241 C 
ATOM     29  O   ILE A   4      57.263  40.471  67.709  0.00  0.00    -0.273 OA
ATOM     30  N   THR A   5      56.376  41.535  65.920  0.00  0.00    -0.295 N 
ATOM     31  H   THR A   5      56.190  41.482  64.898  0.00  0.00    +0.150 HD
BRANCH  30  32
ATOM     32  CA  THR A   5      55.956  42.727  66.640  0.00  0.00    +0.176 C 
BRANCH  32  33
ATOM     33  C   THR A   5      54.946  42.371  67.741  0.00  0.00    +0.243 C 
ATOM     34  O   THR A   5      55.080  42.805  68.892  0.00  0.00    -0.273 OA
ATOM     35  N   ASP A   6      53.932  41.589  67.383  0.00  0.00    -0.297 N 
ATOM     36  H   ASP A   6      53.865  41.252  66.401  0.00  0.00    +0.150 HD
BRANCH  35  37
ATOM     37  CA  ASP A   6      52.912  41.198  68.351  0.00  0.00    +0.148 C 
BRANCH  37  38
ATOM     38  C   ASP A   6      53.491  40.282  69.429  0.00  0.00    +0.227 C 
ATOM     39  O   ASP A   6      53.054  40.322  70.586  0.00  0.00    -0.286 OA
ENDBRANCH  37  38
BRANCH  37  40
ATOM     40  CB  ASP A   6      51.744  40.505  67.650  0.00  0.00    +0.142 C 
BRANCH  40  41
ATOM     41  CG  ASP A   6      50.935  41.456  66.800  0.00  0.00    +0.367 C 
ATOM     42  OD2 ASP A   6      50.634  42.568  67.279  0.00  0.00    -0.246 OA
ATOM     43  OD1 ASP A   6      50.593  41.098  65.659  0.00  0.00    -0.246 OA
ENDBRANCH  40  41
ENDBRANCH  37  40
ENDBRANCH  35  37
ENDBRANCH  32  33
BRANCH  32  44
ATOM     44  CB  THR A   5      55.295  43.746  65.679  0.00  0.00    +0.137 C 
ATOM     45  CG2 THR A   5      54.775  44.967  66.448  0.00  0.00    +0.034 C 
BRANCH  44  46
ATOM     46  OG1 THR A   5      56.247  44.161  64.692  0.00  0.00    -0.382 OA
ATOM     47  HG1 THR A   5      55.822  44.812  64.079  0.00  0.00    +0.210 HD
ENDBRANCH  44  46
ENDBRANCH  32  44
ENDBRANCH  30  32
ENDBRANCH  27  28
BRANCH  27  48
ATOM     48  CB  ILE A   4      58.797  39.464  65.106  0.00  0.00    +0.027 C 
ATOM     49  CG2 ILE A   4      59.025  40.814  64.449  0.00  0.00    +0.002 C 
BRANCH  48  50
ATOM     50  CG1 ILE A   4      59.752  39.295  66.288  0.00  0.00    +0.002 C 
ATOM     51  CD1 ILE A   4      59.601  37.965  67.042  0.00  0.00    +0.000 C 
ENDBRANCH  48  50
ENDBRANCH  27  48
ENDBRANCH  25  27
ENDBRANCH   1  23
BRANCH   1  52
ATOM     52  CB  GLN A   3      53.414  40.707  63.696  0.00  0.00    +0.039 C 
BRANCH  52  53
ATOM     53  CG  GLN A   3      52.427  41.046  62.592  0.00  0.00    +0.087 C 
BRANCH  53  54
ATOM     54  CD  GLN A   3      53.111  41.403  61.282  0.00  0.00    +0.219 C 
ATOM     55  OE1 GLN A   3      54.308  41.666  61.254  0.00  0.00    -0.275 OA
ATOM     56  NE2 GLN A   3      52.344  41.425  60.192  0.00  0.00    -0.329 N 
ATOM     57 HE21 GLN A   3      51.332  41.195  60.263  0.00  0.00    +0.145 HD
ATOM     58 HE22 GLN A   3      52.757  41.673  59.270  0.00  0.00    +0.145 HD
ENDBRANCH  53  54
ENDBRANCH  52  53
ENDBRANCH   1  52
TORSDOF 26
REMARK  Name = ../refined-set-2016/3juk/3juk_pocket.pdb
REMARK  272 active torsions:
REMARK  status: ('A' for Active; 'I' for Inactive)
REMARK    1  A    between atoms: _1  and  _3
REMARK    2  A    between atoms: _3  and  _4
REMARK    3  A    between atoms: _3  and  _6
REMARK    4  A    between atoms: _6  and  _7
REMARK    5  A    between atoms: _14  and  _15
REMARK    6  A    between atoms: _20  and  _22
REMARK    7  A    between atoms: _22  and  _23
REMARK    8  A    between atoms: _26  and  _28
REMARK    9  A    between atoms: _28  and  _29
REMARK   10  A    between atoms: _32  and  _34
REMARK   11  A    between atoms: _34  and  _35
REMARK   12  A    between atoms: _37  and  _39
REMARK   13  A    between atoms: _39  and  _40
REMARK   14  A    between atoms: _39  and  _42
REMARK   15  A    between atoms: _42  and  _43
REMARK   16  A    between atoms: _48  and  _49
REMARK   17  A    between atoms: _51  and  _53
REMARK   18  A    between atoms: _53  and  _54
REMARK   19  A    between atoms: _56  and  _58
REMARK   20  A    between atoms: _58  and  _59
REMARK   21  A    between atoms: _58  and  _61
REMARK   22  A    between atoms: _61  and  _62
REMARK   23  A    between atoms: _65  and  _67
REMARK   24  A    between atoms: _67  and  _68
REMARK   25  A    between atoms: _67  and  _70
REMARK   26  A    between atoms: _70  and  _71
REMARK   27  A    between atoms: _71  and  _72
REMARK   28  A    between atoms: _72  and  _73
REMARK   29  A    between atoms: _83  and  _84
REMARK   30  A    between atoms: _89  and  _91
REMARK   31  A    between atoms: _91  and  _92
REMARK   32  A    between atoms: _91  and  _94
REMARK   33  A    between atoms: _94  and  _95
REMARK   34  A    between atoms: _95  and  _96
REMARK   35  A    between atoms: _96  and  _97
REMARK   36  A    between atoms: _97  and  _98
REMARK   37  A    between atoms: _102  and  _104
REMARK   38  A    between atoms: _104  and  _105
REMARK   39  A    between atoms: _104  and  _107
REMARK   40  A    between atoms: _107  and  _108
REMARK   41  A    between atoms: _108  and  _109
REMARK   42  A    between atoms: _112  and  _114
REMARK   43  A    between atoms: _114  and  _115
REMARK   44  A    between atoms: _114  and  _117
REMARK   45  A    between atoms: _117  and  _118
REMARK   46  A    between atoms: _121  and  _123
REMARK   47  A    between atoms: _123  and  _124
REMARK   48  A    between atoms: _123  and  _126
REMARK   49  A    between atoms: _129  and  _131
REMARK   50  A    between atoms: _131  and  _132
REMARK   51  A    between atoms: _131  and  _134
REMARK   52  A    between atoms: _134  and  _135
REMARK   53  A    between atoms: _138  and  _140
REMARK   54  A    between atoms: _140  and  _141
REMARK   55  A    between atoms: _143  and  _145
REMARK   56  A    between atoms: _145  and  _146
REMARK   57  A    between atoms: _145  and  _148
REMARK   58  A    between atoms: _148  and  _149
REMARK   59  A    between atoms: _149  and  _150
REMARK   60  A    between atoms: _155  and  _157
REMARK   61  A    between atoms: _157  and  _158
REMARK   62  A    between atoms: _157  and  _160
REMARK   63  A    between atoms: _160  and  _161
REMARK   64  A    between atoms: _161  and  _162
REMARK   65  A    between atoms: _167  and  _169
REMARK   66  A    between atoms: _169  and  _170
REMARK   67  A    between atoms: _169  and  _172
REMARK   68  A    between atoms: _172  and  _173
REMARK   69  A    between atoms: _173  and  _174
REMARK   70  A    between atoms: _176  and  _178
REMARK   71  A    between atoms: _178  and  _179
REMARK   72  A    between atoms: _178  and  _181
REMARK   73  A    between atoms: _181  and  _182
REMARK   74  A    between atoms: _182  and  _183
REMARK   75  A    between atoms: _183  and  _184
REMARK   76  A    between atoms: _184  and  _185
REMARK   77  A    between atoms: _189  and  _191
REMARK   78  A    between atoms: _191  and  _192
REMARK   79  A    between atoms: _194  and  _196
REMARK   80  A    between atoms: _196  and  _197
REMARK   81  A    between atoms: _196  and  _199
REMARK   82  A    between atoms: _199  and  _200
REMARK   83  A    between atoms: _203  and  _205
REMARK   84  A    between atoms: _205  and  _206
REMARK   85  A    between atoms: _208  and  _210
REMARK   86  A    between atoms: _210  and  _211
REMARK   87  A    between atoms: _210  and  _213
REMARK   88  A    between atoms: _213  and  _214
REMARK   89  A    between atoms: _219  and  _221
REMARK   90  A    between atoms: _221  and  _222
REMARK   91  A    between atoms: _225  and  _227
REMARK   92  A    between atoms: _227  and  _228
REMARK   93  A    between atoms: _227  and  _230
REMARK   94  A    between atoms: _230  and  _231
REMARK   95  A    between atoms: _234  and  _236
REMARK   96  A    between atoms: _236  and  _237
REMARK   97  A    between atoms: _236  and  _239
REMARK   98  A    between atoms: _239  and  _240
REMARK   99  A    between atoms: _243  and  _245
REMARK  100  A    between atoms: _245  and  _246
REMARK  101  A    between atoms: _245  and  _248
REMARK  102  A    between atoms: _251  and  _253
REMARK  103  A    between atoms: _253  and  _254
REMARK  104  A    between atoms: _253  and  _256
REMARK  105  A    between atoms: _256  and  _257
REMARK  106  A    between atoms: _260  and  _262
REMARK  107  A    between atoms: _262  and  _263
REMARK  108  A    between atoms: _262  and  _265
REMARK  109  A    between atoms: _265  and  _266
REMARK  110  A    between atoms: _269  and  _271
REMARK  111  A    between atoms: _271  and  _272
REMARK  112  A    between atoms: _275  and  _277
REMARK  113  A    between atoms: _277  and  _278
REMARK  114  A    between atoms: _277  and  _280
REMARK  115  A    between atoms: _280  and  _281
REMARK  116  A    between atoms: _281  and  _282
REMARK  117  A    between atoms: _282  and  MG_647
REMARK  118  A    between atoms: _284  and  _286
REMARK  119  A    between atoms: _286  and  _287
REMARK  120  A    between atoms: _286  and  _289
REMARK  121  A    between atoms: _289  and  _290
REMARK  122  A    between atoms: _293  and  _295
REMARK  123  A    between atoms: _295  and  _296
REMARK  124  A    between atoms: _295  and  _298
REMARK  125  A    between atoms: _298  and  _299
REMARK  126  A    between atoms: _302  and  _304
REMARK  127  A    between atoms: _304  and  _305
REMARK  128  A    between atoms: _304  and  _307
REMARK  129  A    between atoms: _310  and  _312
REMARK  130  A    between atoms: _312  and  _313
REMARK  131  A    between atoms: _316  and  _318
REMARK  132  A    between atoms: _318  and  _319
REMARK  133  A    between atoms: _318  and  _321
REMARK  134  A    between atoms: _321  and  _322
REMARK  135  A    between atoms: _325  and  _327
REMARK  136  A    between atoms: _327  and  _328
REMARK  137  A    between atoms: _327  and  _330
REMARK  138  A    between atoms: _330  and  _331
REMARK  139  A    between atoms: _331  and  _332
REMARK  140  A    between atoms: _335  and  _337
REMARK  141  A    between atoms: _337  and  _338
REMARK  142  A    between atoms: _337  and  _340
REMARK  143  A    between atoms: _340  and  _341
REMARK  144  A    between atoms: _341  and  _342
REMARK  145  A    between atoms: _345  and  _347
REMARK  146  A    between atoms: _347  and  _348
REMARK  147  A    between atoms: _347  and  _350
REMARK  148  A    between atoms: _353  and  _355
REMARK  149  A    between atoms: _355  and  _356
REMARK  150  A    between atoms: _355  and  _358
REMARK  151  A    between atoms: _358  and  _359
REMARK  152  A    between atoms: _361  and  _363
REMARK  153  A    between atoms: _363  and  _364
REMARK  154  A    between atoms: _363  and  _366
REMARK  155  A    between atoms: _366  and  _367
REMARK  156  A    between atoms: _367  and  _368
REMARK  157  A    between atoms: _368  and  _369
REMARK  158  A    between atoms: _369  and  _370
REMARK  159  A    between atoms: _374  and  _376
REMARK  160  A    between atoms: _376  and  _377
REMARK  161  A    between atoms: _376  and  _379
REMARK  162  A    between atoms: _379  and  _380
REMARK  163  A    between atoms: _385  and  _386
REMARK  164  A    between atoms: _388  and  _390
REMARK  165  A    between atoms: _390  and  _391
REMARK  166  A    between atoms: _393  and  _395
REMARK  167  A    between atoms: _395  and  _396
REMARK  168  A    between atoms: _395  and  _398
REMARK  169  A    between atoms: _401  and  _403
REMARK  170  A    between atoms: _403  and  _404
REMARK  171  A    between atoms: _403  and  _406
REMARK  172  A    between atoms: _406  and  _407
REMARK  173  A    between atoms: _407  and  _408
REMARK  174  A    between atoms: _410  and  _412
REMARK  175  A    between atoms: _412  and  _413
REMARK  176  A    between atoms: _412  and  _415
REMARK  177  A    between atoms: _418  and  _420
REMARK  178  A    between atoms: _420  and  _421
REMARK  179  A    between atoms: _420  and  _423
REMARK  180  A    between atoms: _423  and  _424
REMARK  181  A    between atoms: _424  and  _425
REMARK  182  A    between atoms: _428  and  _430
REMARK  183  A    between atoms: _430  and  _431
REMARK  184  A    between atoms: _430  and  _433
REMARK  185  A    between atoms: _433  and  _434
REMARK  186  A    between atoms: _434  and  _435
REMARK  187  A    between atoms: _435  and  _436
REMARK  188  A    between atoms: _436  and  _437
REMARK  189  A    between atoms: _441  and  _443
REMARK  190  A    between atoms: _443  and  _444
REMARK  191  A    between atoms: _443  and  _446
REMARK  192  A    between atoms: _446  and  _447
REMARK  193  A    between atoms: _450  and  _452
REMARK  194  A    between atoms: _452  and  _453
REMARK  195  A    between atoms: _456  and  _458
REMARK  196  A    between atoms: _458  and  _459
REMARK  197  A    between atoms: _458  and  _461
REMARK  198  A    between atoms: _464  and  _466
REMARK  199  A    between atoms: _466  and  _467
REMARK  200  A    between atoms: _466  and  _469
REMARK  201  A    between atoms: _469  and  _470
REMARK  202  A    between atoms: _473  and  _475
REMARK  203  A    between atoms: _475  and  _476
REMARK  204  A    between atoms: _478  and  _480
REMARK  205  A    between atoms: _480  and  _481
REMARK  206  A    between atoms: _480  and  _483
REMARK  207  A    between atoms: _483  and  _484
REMARK  208  A    between atoms: _484  and  _485
REMARK  209  A    between atoms: _485  and  _486
REMARK  210  A    between atoms: _495  and  _497
REMARK  211  A    between atoms: _497  and  _498
REMARK  212  A    between atoms: _497  and  _500
REMARK  213  A    between atoms: _500  and  _501
REMARK  214  A    between atoms: _506  and  _507
REMARK  215  A    between atoms: _509  and  _511
REMARK  216  A    between atoms: _511  and  _512
REMARK  217  A    between atoms: _511  and  _514
REMARK  218  A    between atoms: _514  and  _515
REMARK  219  A    between atoms: _520  and  _522
REMARK  220  A    between atoms: _522  and  _523
REMARK  221  A    between atoms: _522  and  _525
REMARK  222  A    between atoms: _525  and  _526
REMARK  223  A    between atoms: _526  and  _527
REMARK  224  A    between atoms: _530  and  _532
REMARK  225  A    between atoms: _532  and  _533
REMARK  226  A    between atoms: _532  and  _535
REMARK  227  A    between atoms: _535  and  _536
REMARK  228  A    between atoms: _539  and  _541
REMARK  229  A    between atoms: _541  and  _542
REMARK  230  A    between atoms: _541  and  _544
REMARK  231  A    between atoms: _544  and  _545
REMARK  232  A    between atoms: _545  and  _546
REMARK  233  A    between atoms: _551  and  _553
REMARK  234  A    between atoms: _553  and  _554
REMARK  235  A    between atoms: _553  and  _556
REMARK  236  A    between atoms: _556  and  _557
REMARK  237  A    between atoms: _560  and  _562
REMARK  238  A    between atoms: _562  and  _563
REMARK  239  A    between atoms: _562  and  _565
REMARK  240  A    between atoms: _565  and  _566
REMARK  241  A    between atoms: _569  and  _571
REMARK  242  A    between atoms: _571  and  _572
REMARK  243  A    between atoms: _571  and  _574
REMARK  244  A    between atoms: _574  and  _575
REMARK  245  A    between atoms: _578  and  _580
REMARK  246  A    between atoms: _580  and  _581
REMARK  247  A    between atoms: _580  and  _583
REMARK  248  A    between atoms: _583  and  _584
REMARK  249  A    between atoms: _587  and  _589
REMARK  250  A    between atoms: _589  and  _590
REMARK  251  A    between atoms: _589  and  _592
REMARK  252  A    between atoms: _592  and  _593
REMARK  253  A    between atoms: _593  and  _594
REMARK  254  A    between atoms: _594  and  _595
REMARK  255  A    between atoms: _604  and  _606
REMARK  256  A    between atoms: _606  and  _607
REMARK  257  A    between atoms: _606  and  _609
REMARK  258  A    between atoms: _609  and  _610
REMARK  259  A    between atoms: _615  and  _616
REMARK  260  A    between atoms: _618  and  _620
REMARK  261  A    between atoms: _620  and  _621
REMARK  262  A    between atoms: _620  and  _623
REMARK  263  A    between atoms: _623  and  _624
REMARK  264  A    between atoms: _627  and  _629
REMARK  265  A    between atoms: _629  and  _630
REMARK  266  A    between atoms: _629  and  _632
REMARK  267  A    between atoms: _634  and  _636
REMARK  268  A    between atoms: _636  and  _637
REMARK  269  A    between atoms: _639  and  _641
REMARK  270  A    between atoms: _641  and  _642
REMARK  271  A    between atoms: _641  and  _644
REMARK  272  A    between atoms: _644  and  _645
REMARK                            x       y       z     vdW  Elec       q    Type
REMARK                         _______ _______ _______ _____ _____    ______ ____
ROOT
ATOM      1  CA  LEU A   1      57.485  41.289  71.213  0.00  0.00    +0.133 C 
ENDROOT
BRANCH   1   2
ATOM      2  N   LEU A   1      56.636  40.413  70.407  0.00  0.00    -0.239 NA
ATOM      3  H   LEU A   1      56.524  40.609  69.392  0.00  0.00    +0.142 HD
ENDBRANCH   1   2
BRANCH   1   4
ATOM      4  C   LEU A   1      56.611  42.115  72.152  0.00  0.00    +0.224 C 
ATOM      5  O   LEU A   1      57.032  42.462  73.253  0.00  0.00    -0.287 OA
ENDBRANCH   1   4
BRANCH   1   6
ATOM      6  CB  LEU A   1      58.306  42.214  70.314  0.00  0.00    +0.025 C 
BRANCH   6   7
ATOM      7  CG  LEU A   1      59.450  41.476  69.611  0.00  0.00    +0.002 C 
ATOM      8  CD2 LEU A   1      60.557  41.137  70.625  0.00  0.00    +0.000 C 
ATOM      9  CD1 LEU A   1      59.963  42.319  68.459  0.00  0.00    +0.000 C 
ENDBRANCH   6   7
ENDBRANCH   1   6
TORSDOF 4
REMARK  Name = ../refined-set-2016/3juk/3juk_pocket.pdb
REMARK  272 active torsions:
REMARK  status: ('A' for Active; 'I' for Inactive)
REMARK    1  A    between atoms: _1  and  _3
REMARK    2  A    between atoms: _3  and  _4
REMARK    3  A    between atoms: _3  and  _6
REMARK    4  A    between atoms: _6  and  _7
REMARK    5  A    between atoms: _14  and  _15
REMARK    6  A    between atoms: _20  and  _22
REMARK    7  A    between atoms: _22  and  _23
REMARK    8  A    between atoms: _26  and  _28
REMARK    9  A    between atoms: _28  and  _29
REMARK   10  A    between atoms: _32  and  _34
REMARK   11  A    between atoms: _34  and  _35
REMARK   12  A    between atoms: _37  and  _39
REMARK   13  A    between atoms: _39  and  _40
REMARK   14  A    between atoms: _39  and  _42
REMARK   15  A    between atoms: _42  and  _43
REMARK   16  A    between atoms: _48  and  _49
REMARK   17  A    between atoms: _51  and  _53
REMARK   18  A    between atoms: _53  and  _54
REMARK   19  A    between atoms: _56  and  _58
REMARK   20  A    between atoms: _58  and  _59
REMARK   21  A    between atoms: _58  and  _61
REMARK   22  A    between atoms: _61  and  _62
REMARK   23  A    between atoms: _65  and  _67
REMARK   24  A    between atoms: _67  and  _68
REMARK   25  A    between atoms: _67  and  _70
REMARK   26  A    between atoms: _70  and  _71
REMARK   27  A    between atoms: _71  and  _72
REMARK   28  A    between atoms: _72  and  _73
REMARK   29  A    between atoms: _83  and  _84
REMARK   30  A    between atoms: _89  and  _91
REMARK   31  A    between atoms: _91  and  _92
REMARK   32  A    between atoms: _91  and  _94
REMARK   33  A    between atoms: _94  and  _95
REMARK   34  A    between atoms: _95  and  _96
REMARK   35  A    between atoms: _96  and  _97
REMARK   36  A    between atoms: _97  and  _98
REMARK   37  A    between atoms: _102  and  _104
REMARK   38  A    between atoms: _104  and  _105
REMARK   39  A    between atoms: _104  and  _107
REMARK   40  A    between atoms: _107  and  _108
REMARK   41  A    between atoms: _108  and  _109
REMARK   42  A    between atoms: _112  and  _114
REMARK   43  A    between atoms: _114  and  _115
REMARK   44  A    between atoms: _114  and  _117
REMARK   45  A    between atoms: _117  and  _118
REMARK   46  A    between atoms: _121  and  _123
REMARK   47  A    between atoms: _123  and  _124
REMARK   48  A    between atoms: _123  and  _126
REMARK   49  A    between atoms: _129  and  _131
REMARK   50  A    between atoms: _131  and  _132
REMARK   51  A    between atoms: _131  and  _134
REMARK   52  A    between atoms: _134  and  _135
REMARK   53  A    between atoms: _138  and  _140
REMARK   54  A    between atoms: _140  and  _141
REMARK   55  A    between atoms: _143  and  _145
REMARK   56  A    between atoms: _145  and  _146
REMARK   57  A    between atoms: _145  and  _148
REMARK   58  A    between atoms: _148  and  _149
REMARK   59  A    between atoms: _149  and  _150
REMARK   60  A    between atoms: _155  and  _157
REMARK   61  A    between atoms: _157  and  _158
REMARK   62  A    between atoms: _157  and  _160
REMARK   63  A    between atoms: _160  and  _161
REMARK   64  A    between atoms: _161  and  _162
REMARK   65  A    between atoms: _167  and  _169
REMARK   66  A    between atoms: _169  and  _170
REMARK   67  A    between atoms: _169  and  _172
REMARK   68  A    between atoms: _172  and  _173
REMARK   69  A    between atoms: _173  and  _174
REMARK   70  A    between atoms: _176  and  _178
REMARK   71  A    between atoms: _178  and  _179
REMARK   72  A    between atoms: _178  and  _181
REMARK   73  A    between atoms: _181  and  _182
REMARK   74  A    between atoms: _182  and  _183
REMARK   75  A    between atoms: _183  and  _184
REMARK   76  A    between atoms: _184  and  _185
REMARK   77  A    between atoms: _189  and  _191
REMARK   78  A    between atoms: _191  and  _192
REMARK   79  A    between atoms: _194  and  _196
REMARK   80  A    between atoms: _196  and  _197
REMARK   81  A    between atoms: _196  and  _199
REMARK   82  A    between atoms: _199  and  _200
REMARK   83  A    between atoms: _203  and  _205
REMARK   84  A    between atoms: _205  and  _206
REMARK   85  A    between atoms: _208  and  _210
REMARK   86  A    between atoms: _210  and  _211
REMARK   87  A    between atoms: _210  and  _213
REMARK   88  A    between atoms: _213  and  _214
REMARK   89  A    between atoms: _219  and  _221
REMARK   90  A    between atoms: _221  and  _222
REMARK   91  A    between atoms: _225  and  _227
REMARK   92  A    between atoms: _227  and  _228
REMARK   93  A    between atoms: _227  and  _230
REMARK   94  A    between atoms: _230  and  _231
REMARK   95  A    between atoms: _234  and  _236
REMARK   96  A    between atoms: _236  and  _237
REMARK   97  A    between atoms: _236  and  _239
REMARK   98  A    between atoms: _239  and  _240
REMARK   99  A    between atoms: _243  and  _245
REMARK  100  A    between atoms: _245  and  _246
REMARK  101  A    between atoms: _245  and  _248
REMARK  102  A    between atoms: _251  and  _253
REMARK  103  A    between atoms: _253  and  _254
REMARK  104  A    between atoms: _253  and  _256
REMARK  105  A    between atoms: _256  and  _257
REMARK  106  A    between atoms: _260  and  _262
REMARK  107  A    between atoms: _262  and  _263
REMARK  108  A    between atoms: _262  and  _265
REMARK  109  A    between atoms: _265  and  _266
REMARK  110  A    between atoms: _269  and  _271
REMARK  111  A    between atoms: _271  and  _272
REMARK  112  A    between atoms: _275  and  _277
REMARK  113  A    between atoms: _277  and  _278
REMARK  114  A    between atoms: _277  and  _280
REMARK  115  A    between atoms: _280  and  _281
REMARK  116  A    between atoms: _281  and  _282
REMARK  117  A    between atoms: _282  and  MG_647
REMARK  118  A    between atoms: _284  and  _286
REMARK  119  A    between atoms: _286  and  _287
REMARK  120  A    between atoms: _286  and  _289
REMARK  121  A    between atoms: _289  and  _290
REMARK  122  A    between atoms: _293  and  _295
REMARK  123  A    between atoms: _295  and  _296
REMARK  124  A    between atoms: _295  and  _298
REMARK  125  A    between atoms: _298  and  _299
REMARK  126  A    between atoms: _302  and  _304
REMARK  127  A    between atoms: _304  and  _305
REMARK  128  A    between atoms: _304  and  _307
REMARK  129  A    between atoms: _310  and  _312
REMARK  130  A    between atoms: _312  and  _313
REMARK  131  A    between atoms: _316  and  _318
REMARK  132  A    between atoms: _318  and  _319
REMARK  133  A    between atoms: _318  and  _321
REMARK  134  A    between atoms: _321  and  _322
REMARK  135  A    between atoms: _325  and  _327
REMARK  136  A    between atoms: _327  and  _328
REMARK  137  A    between atoms: _327  and  _330
REMARK  138  A    between atoms: _330  and  _331
REMARK  139  A    between atoms: _331  and  _332
REMARK  140  A    between atoms: _335  and  _337
REMARK  141  A    between atoms: _337  and  _338
REMARK  142  A    between atoms: _337  and  _340
REMARK  143  A    between atoms: _340  and  _341
REMARK  144  A    between atoms: _341  and  _342
REMARK  145  A    between atoms: _345  and  _347
REMARK  146  A    between atoms: _347  and  _348
REMARK  147  A    between atoms: _347  and  _350
REMARK  148  A    between atoms: _353  and  _355
REMARK  149  A    between atoms: _355  and  _356
REMARK  150  A    between atoms: _355  and  _358
REMARK  151  A    between atoms: _358  and  _359
REMARK  152  A    between atoms: _361  and  _363
REMARK  153  A    between atoms: _363  and  _364
REMARK  154  A    between atoms: _363  and  _366
REMARK  155  A    between atoms: _366  and  _367
REMARK  156  A    between atoms: _367  and  _368
REMARK  157  A    between atoms: _368  and  _369
REMARK  158  A    between atoms: _369  and  _370
REMARK  159  A    between atoms: _374  and  _376
REMARK  160  A    between atoms: _376  and  _377
REMARK  161  A    between atoms: _376  and  _379
REMARK  162  A    between atoms: _379  and  _380
REMARK  163  A    between atoms: _385  and  _386
REMARK  164  A    between atoms: _388  and  _390
REMARK  165  A    between atoms: _390  and  _391
REMARK  166  A    between atoms: _393  and  _395
REMARK  167  A    between atoms: _395  and  _396
REMARK  168  A    between atoms: _395  and  _398
REMARK  169  A    between atoms: _401  and  _403
REMARK  170  A    between atoms: _403  and  _404
REMARK  171  A    between atoms: _403  and  _406
REMARK  172  A    between atoms: _406  and  _407
REMARK  173  A    between atoms: _407  and  _408
REMARK  174  A    between atoms: _410  and  _412
REMARK  175  A    between atoms: _412  and  _413
REMARK  176  A    between atoms: _412  and  _415
REMARK  177  A    between atoms: _418  and  _420
REMARK  178  A    between atoms: _420  and  _421
REMARK  179  A    between atoms: _420  and  _423
REMARK  180  A    between atoms: _423  and  _424
REMARK  181  A    between atoms: _424  and  _425
REMARK  182  A    between atoms: _428  and  _430
REMARK  183  A    between atoms: _430  and  _431
REMARK  184  A    between atoms: _430  and  _433
REMARK  185  A    between atoms: _433  and  _434
REMARK  186  A    between atoms: _434  and  _435
REMARK  187  A    between atoms: _435  and  _436
REMARK  188  A    between atoms: _436  and  _437
REMARK  189  A    between atoms: _441  and  _443
REMARK  190  A    between atoms: _443  and  _444
REMARK  191  A    between atoms: _443  and  _446
REMARK  192  A    between atoms: _446  and  _447
REMARK  193  A    between atoms: _450  and  _452
REMARK  194  A    between atoms: _452  and  _453
REMARK  195  A    between atoms: _456  and  _458
REMARK  196  A    between atoms: _458  and  _459
REMARK  197  A    between atoms: _458  and  _461
REMARK  198  A    between atoms: _464  and  _466
REMARK  199  A    between atoms: _466  and  _467
REMARK  200  A    between atoms: _466  and  _469
REMARK  201  A    between atoms: _469  and  _470
REMARK  202  A    between atoms: _473  and  _475
REMARK  203  A    between atoms: _475  and  _476
REMARK  204  A    between atoms: _478  and  _480
REMARK  205  A    between atoms: _480  and  _481
REMARK  206  A    between atoms: _480  and  _483
REMARK  207  A    between atoms: _483  and  _484
REMARK  208  A    between atoms: _484  and  _485
REMARK  209  A    between atoms: _485  and  _486
REMARK  210  A    between atoms: _495  and  _497
REMARK  211  A    between atoms: _497  and  _498
REMARK  212  A    between atoms: _497  and  _500
REMARK  213  A    between atoms: _500  and  _501
REMARK  214  A    between atoms: _506  and  _507
REMARK  215  A    between atoms: _509  and  _511
REMARK  216  A    between atoms: _511  and  _512
REMARK  217  A    between atoms: _511  and  _514
REMARK  218  A    between atoms: _514  and  _515
REMARK  219  A    between atoms: _520  and  _522
REMARK  220  A    between atoms: _522  and  _523
REMARK  221  A    between atoms: _522  and  _525
REMARK  222  A    between atoms: _525  and  _526
REMARK  223  A    between atoms: _526  and  _527
REMARK  224  A    between atoms: _530  and  _532
REMARK  225  A    between atoms: _532  and  _533
REMARK  226  A    between atoms: _532  and  _535
REMARK  227  A    between atoms: _535  and  _536
REMARK  228  A    between atoms: _539  and  _541
REMARK  229  A    between atoms: _541  and  _542
REMARK  230  A    between atoms: _541  and  _544
REMARK  231  A    between atoms: _544  and  _545
REMARK  232  A    between atoms: _545  and  _546
REMARK  233  A    between atoms: _551  and  _553
REMARK  234  A    between atoms: _553  and  _554
REMARK  235  A    between atoms: _553  and  _556
REMARK  236  A    between atoms: _556  and  _557
REMARK  237  A    between atoms: _560  and  _562
REMARK  238  A    between atoms: _562  and  _563
REMARK  239  A    between atoms: _562  and  _565
REMARK  240  A    between atoms: _565  and  _566
REMARK  241  A    between atoms: _569  and  _571
REMARK  242  A    between atoms: _571  and  _572
REMARK  243  A    between atoms: _571  and  _574
REMARK  244  A    between atoms: _574  and  _575
REMARK  245  A    between atoms: _578  and  _580
REMARK  246  A    between atoms: _580  and  _581
REMARK  247  A    between atoms: _580  and  _583
REMARK  248  A    between atoms: _583  and  _584
REMARK  249  A    between atoms: _587  and  _589
REMARK  250  A    between atoms: _589  and  _590
REMARK  251  A    between atoms: _589  and  _592
REMARK  252  A    between atoms: _592  and  _593
REMARK  253  A    between atoms: _593  and  _594
REMARK  254  A    between atoms: _594  and  _595
REMARK  255  A    between atoms: _604  and  _606
REMARK  256  A    between atoms: _606  and  _607
REMARK  257  A    between atoms: _606  and  _609
REMARK  258  A    between atoms: _609  and  _610
REMARK  259  A    between atoms: _615  and  _616
REMARK  260  A    between atoms: _618  and  _620
REMARK  261  A    between atoms: _620  and  _621
REMARK  262  A    between atoms: _620  and  _623
REMARK  263  A    between atoms: _623  and  _624
REMARK  264  A    between atoms: _627  and  _629
REMARK  265  A    between atoms: _629  and  _630
REMARK  266  A    between atoms: _629  and  _632
REMARK  267  A    between atoms: _634  and  _636
REMARK  268  A    between atoms: _636  and  _637
REMARK  269  A    between atoms: _639  and  _641
REMARK  270  A    between atoms: _641  and  _642
REMARK  271  A    between atoms: _641  and  _644
REMARK  272  A    between atoms: _644  and  _645
REMARK                            x       y       z     vdW  Elec       q    Type
REMARK                         _______ _______ _______ _____ _____    ______ ____
ROOT
ATOM      1  C   TYR A   2      67.272  51.614  54.153  0.00  0.00    +0.241 C 
ATOM      2  O   TYR A   2      67.641  50.451  54.322  0.00  0.00    -0.273 OA
ATOM      3  N   ASP A   3      65.996  51.929  53.981  0.00  0.00    -0.297 N 
ATOM      4  H   ASP A   3      65.707  52.925  53.905  0.00  0.00    +0.150 HD
ENDROOT
BRANCH   3   5
ATOM      5  CA  ASP A   3      65.001  50.867  53.900  0.00  0.00    +0.160 C 
BRANCH   5   6
ATOM      6  C   ASP A   3      65.020  50.338  52.468  0.00  0.00    +0.241 C 
ATOM      7  N   CYS A   4      65.933  49.411  52.209  0.00  0.00    -0.296 N 
ATOM      8  H   CYS A   4      66.560  49.088  52.973  0.00  0.00    +0.150 HD
ATOM      9  O   ASP A   3      64.236  50.770  51.620  0.00  0.00    -0.273 OA
BRANCH   7  10
ATOM     10  CA  CYS A   4      66.077  48.838  50.888  0.00  0.00    +0.160 C 
BRANCH  10  11
ATOM     11  C   CYS A   4      64.968  47.829  50.655  0.00  0.00    +0.242 C 
ATOM     12  N   GLY A   5      64.038  47.771  51.606  0.00  0.00    -0.295 N 
ATOM     13  H   GLY A   5      64.137  48.366  52.453  0.00  0.00    +0.150 HD
ATOM     14  O   CYS A   4      64.960  47.117  49.655  0.00  0.00    -0.273 OA
BRANCH  12  15
ATOM     15  CA  GLY A   5      62.891  46.895  51.484  0.00  0.00    +0.176 C 
BRANCH  15  16
ATOM     16  C   GLY A   5      61.911  47.629  50.582  0.00  0.00    +0.243 C 
ATOM     17  N   SER A   6      62.203  48.908  50.343  0.00  0.00    -0.296 N 
ATOM     18  H   SER A   6      63.047  49.322  50.787  0.00  0.00    +0.150 HD
ATOM     19  O   GLY A   5      60.914  47.060  50.113  0.00  0.00    -0.273 OA
BRANCH  17  20
ATOM     20  CA  SER A   6      61.377  49.749  49.478  0.00  0.00    +0.166 C 
BRANCH  20  21
ATOM     21  C   SER A   6      62.226  50.192  48.287  0.00  0.00    +0.229 C 
ATOM     22  O   SER A   6      63.429  50.419  48.433  0.00  0.00    -0.286 OA
ENDBRANCH  20  21
BRANCH  20  23
ATOM     23  CB  SER A   6      60.889  50.980  50.238  0.00  0.00    +0.165 C 
BRANCH  23  24
ATOM     24  OG  SER A   6      61.978  51.841  50.518  0.00  0.00    -0.380 OA
ATOM     25  H   SER A   6      62.644  51.360  51.070  0.00  0.00    +0.211 HD
ENDBRANCH  23  24
ENDBRANCH  20  23
ENDBRANCH  17  20
ENDBRANCH  15  16
ENDBRANCH  12  15
ENDBRANCH  10  11
BRANCH  10  26
ATOM     26  CB  CYS A   4      67.460  48.196  50.751  0.00  0.00    +0.098 C 
ATOM     27  SG  CYS A   4      68.816  49.416  50.843  0.00  0.00    -0.080 S 
ENDBRANCH  10  26
ENDBRANCH   7  10
ENDBRANCH   5   6
BRANCH   5  28
ATOM     28  CB  ASP A   3      63.601  51.375  54.218  0.00  0.00    +0.143 C 
BRANCH  28  29
ATOM     29  CG  ASP A   3      62.581  50.248  54.244  0.00  0.00    +0.367 C 
ATOM     30  OD2 ASP A   3      61.396  50.518  54.541  0.00  0.00    -0.246 OA
ATOM     31  OD1 ASP A   3      62.974  49.087  53.975  0.00  0.00    -0.246 OA
ENDBRANCH  28  29
ENDBRANCH   5  28
ENDBRANCH   3   5
BRANCH   1  32
ATOM     32  CA  TYR A   2      68.290  52.755  54.172  0.00  0.00    +0.153 C 
BRANCH  32  35
ATOM     33  C   ARG A   1      68.942  53.517  56.392  0.00  0.00    +0.238 C 
ATOM     34  O   ARG A   1      68.203  54.495  56.332  0.00  0.00    -0.274 OA
ATOM     35  N   TYR A   2      69.063  52.644  55.401  0.00  0.00    -0.297 N 
ATOM     36  H   TYR A   2      69.732  51.854  55.505  0.00  0.00    +0.150 HD
BRANCH  33  37
ATOM     37  CA  ARG A   1      69.788  53.237  57.634  0.00  0.00    +0.145 C 
BRANCH  37  38
ATOM     38  N   ARG A   1      70.592  54.368  58.092  0.00  0.00    -0.238 NA
ATOM     39  H   ARG A   1      70.131  55.283  58.269  0.00  0.00    +0.142 HD
ENDBRANCH  37  38
BRANCH  37  40
ATOM     40  CB  ARG A   1      68.882  52.741  58.761  0.00  0.00    +0.030 C 
BRANCH  40  41
ATOM     41  CG  ARG A   1      67.894  51.655  58.368  0.00  0.00    +0.045 C 
BRANCH  41  42
ATOM     42  CD  ARG A   1      66.532  52.263  58.055  0.00  0.00    +0.174 C 
BRANCH  42  43
ATOM     43  NE  ARG A   1      65.493  51.245  58.036  0.00  0.00    -0.265 N 
ATOM     44  HE  ARG A   1      65.792  50.249  58.066  0.00  0.00    +0.259 HD
ATOM     45  CZ  ARG A   1      64.189  51.497  57.983  0.00  0.00    +0.342 C 
ATOM     46  NH2 ARG A   1      63.328  50.492  57.974  0.00  0.00    -0.292 N 
ATOM     47 HH21 ARG A   1      63.673  49.511  58.008  0.00  0.00    +0.255 HD
ATOM     48 HH22 ARG A   1      62.306  50.683  57.933  0.00  0.00    +0.255 HD
ATOM     49  NH1 ARG A   1      63.745  52.744  57.941  0.00  0.00    -0.292 N 
ATOM     50 HH11 ARG A   1      64.419  53.536  57.949  0.00  0.00    +0.255 HD
ATOM     51 HH12 ARG A   1      62.723  52.931  57.900  0.00  0.00    +0.255 HD
ENDBRANCH  42  43
ENDBRANCH  41  42
ENDBRANCH  40  41
ENDBRANCH  37  40
ENDBRANCH  33  37
ENDBRANCH  32  35
BRANCH  32  52
ATOM     52  CB  TYR A   2      69.197  52.614  52.945  0.00  0.00    +0.055 C 
BRANCH  52  53
ATOM     53  CG  TYR A   2      70.315  53.623  52.874  0.00  0.00    -0.020 A 
ATOM     54  CD2 TYR A   2      71.492  53.447  53.603  0.00  0.00    -0.001 A 
ATOM     55  CE2 TYR A   2      72.498  54.408  53.582  0.00  0.00    +0.036 A 
ATOM     56  CZ  TYR A   2      72.322  55.567  52.829  0.00  0.00    +0.134 A 
ATOM     57  CE1 TYR A   2      71.163  55.763  52.093  0.00  0.00    +0.036 A 
ATOM     58  CD1 TYR A   2      70.173  54.792  52.115  0.00  0.00    -0.001 A 
BRANCH  56  59
ATOM     59  OH  TYR A   2      73.280  56.550  52.832  0.00  0.00    -0.506 OA
ATOM     60  HH  TYR A   2      72.892  57.386  53.194  0.00  0.00    +0.292 HD
ENDBRANCH  56  59
ENDBRANCH  52  53
ENDBRANCH  32  52
ENDBRANCH   1  32
TORSDOF 24
REMARK  Name = ../refined-set-2016/3juk/3juk_pocket.pdb
REMARK  272 active torsions:
REMARK  status: ('A' for Active; 'I' for Inactive)
REMARK    1  A    between atoms: _1  and  _3
REMARK    2  A    between atoms: _3  and  _4
REMARK    3  A    between atoms: _3  and  _6
REMARK    4  A    between atoms: _6  and  _7
REMARK    5  A    between atoms: _14  and  _15
REMARK    6  A    between atoms: _20  and  _22
REMARK    7  A    between atoms: _22  and  _23
REMARK    8  A    between atoms: _26  and  _28
REMARK    9  A    between atoms: _28  and  _29
REMARK   10  A    between atoms: _32  and  _34
REMARK   11  A    between atoms: _34  and  _35
REMARK   12  A    between atoms: _37  and  _39
REMARK   13  A    between atoms: _39  and  _40
REMARK   14  A    between atoms: _39  and  _42
REMARK   15  A    between atoms: _42  and  _43
REMARK   16  A    between atoms: _48  and  _49
REMARK   17  A    between atoms: _51  and  _53
REMARK   18  A    between atoms: _53  and  _54
REMARK   19  A    between atoms: _56  and  _58
REMARK   20  A    between atoms: _58  and  _59
REMARK   21  A    between atoms: _58  and  _61
REMARK   22  A    between atoms: _61  and  _62
REMARK   23  A    between atoms: _65  and  _67
REMARK   24  A    between atoms: _67  and  _68
REMARK   25  A    between atoms: _67  and  _70
REMARK   26  A    between atoms: _70  and  _71
REMARK   27  A    between atoms: _71  and  _72
REMARK   28  A    between atoms: _72  and  _73
REMARK   29  A    between atoms: _83  and  _84
REMARK   30  A    between atoms: _89  and  _91
REMARK   31  A    between atoms: _91  and  _92
REMARK   32  A    between atoms: _91  and  _94
REMARK   33  A    between atoms: _94  and  _95
REMARK   34  A    between atoms: _95  and  _96
REMARK   35  A    between atoms: _96  and  _97
REMARK   36  A    between atoms: _97  and  _98
REMARK   37  A    between atoms: _102  and  _104
REMARK   38  A    between atoms: _104  and  _105
REMARK   39  A    between atoms: _104  and  _107
REMARK   40  A    between atoms: _107  and  _108
REMARK   41  A    between atoms: _108  and  _109
REMARK   42  A    between atoms: _112  and  _114
REMARK   43  A    between atoms: _114  and  _115
REMARK   44  A    between atoms: _114  and  _117
REMARK   45  A    between atoms: _117  and  _118
REMARK   46  A    between atoms: _121  and  _123
REMARK   47  A    between atoms: _123  and  _124
REMARK   48  A    between atoms: _123  and  _126
REMARK   49  A    between atoms: _129  and  _131
REMARK   50  A    between atoms: _131  and  _132
REMARK   51  A    between atoms: _131  and  _134
REMARK   52  A    between atoms: _134  and  _135
REMARK   53  A    between atoms: _138  and  _140
REMARK   54  A    between atoms: _140  and  _141
REMARK   55  A    between atoms: _143  and  _145
REMARK   56  A    between atoms: _145  and  _146
REMARK   57  A    between atoms: _145  and  _148
REMARK   58  A    between atoms: _148  and  _149
REMARK   59  A    between atoms: _149  and  _150
REMARK   60  A    between atoms: _155  and  _157
REMARK   61  A    between atoms: _157  and  _158
REMARK   62  A    between atoms: _157  and  _160
REMARK   63  A    between atoms: _160  and  _161
REMARK   64  A    between atoms: _161  and  _162
REMARK   65  A    between atoms: _167  and  _169
REMARK   66  A    between atoms: _169  and  _170
REMARK   67  A    between atoms: _169  and  _172
REMARK   68  A    between atoms: _172  and  _173
REMARK   69  A    between atoms: _173  and  _174
REMARK   70  A    between atoms: _176  and  _178
REMARK   71  A    between atoms: _178  and  _179
REMARK   72  A    between atoms: _178  and  _181
REMARK   73  A    between atoms: _181  and  _182
REMARK   74  A    between atoms: _182  and  _183
REMARK   75  A    between atoms: _183  and  _184
REMARK   76  A    between atoms: _184  and  _185
REMARK   77  A    between atoms: _189  and  _191
REMARK   78  A    between atoms: _191  and  _192
REMARK   79  A    between atoms: _194  and  _196
REMARK   80  A    between atoms: _196  and  _197
REMARK   81  A    between atoms: _196  and  _199
REMARK   82  A    between atoms: _199  and  _200
REMARK   83  A    between atoms: _203  and  _205
REMARK   84  A    between atoms: _205  and  _206
REMARK   85  A    between atoms: _208  and  _210
REMARK   86  A    between atoms: _210  and  _211
REMARK   87  A    between atoms: _210  and  _213
REMARK   88  A    between atoms: _213  and  _214
REMARK   89  A    between atoms: _219  and  _221
REMARK   90  A    between atoms: _221  and  _222
REMARK   91  A    between atoms: _225  and  _227
REMARK   92  A    between atoms: _227  and  _228
REMARK   93  A    between atoms: _227  and  _230
REMARK   94  A    between atoms: _230  and  _231
REMARK   95  A    between atoms: _234  and  _236
REMARK   96  A    between atoms: _236  and  _237
REMARK   97  A    between atoms: _236  and  _239
REMARK   98  A    between atoms: _239  and  _240
REMARK   99  A    between atoms: _243  and  _245
REMARK  100  A    between atoms: _245  and  _246
REMARK  101  A    between atoms: _245  and  _248
REMARK  102  A    between atoms: _251  and  _253
REMARK  103  A    between atoms: _253  and  _254
REMARK  104  A    between atoms: _253  and  _256
REMARK  105  A    between atoms: _256  and  _257
REMARK  106  A    between atoms: _260  and  _262
REMARK  107  A    between atoms: _262  and  _263
REMARK  108  A    between atoms: _262  and  _265
REMARK  109  A    between atoms: _265  and  _266
REMARK  110  A    between atoms: _269  and  _271
REMARK  111  A    between atoms: _271  and  _272
REMARK  112  A    between atoms: _275  and  _277
REMARK  113  A    between atoms: _277  and  _278
REMARK  114  A    between atoms: _277  and  _280
REMARK  115  A    between atoms: _280  and  _281
REMARK  116  A    between atoms: _281  and  _282
REMARK  117  A    between atoms: _282  and  MG_647
REMARK  118  A    between atoms: _284  and  _286
REMARK  119  A    between atoms: _286  and  _287
REMARK  120  A    between atoms: _286  and  _289
REMARK  121  A    between atoms: _289  and  _290
REMARK  122  A    between atoms: _293  and  _295
REMARK  123  A    between atoms: _295  and  _296
REMARK  124  A    between atoms: _295  and  _298
REMARK  125  A    between atoms: _298  and  _299
REMARK  126  A    between atoms: _302  and  _304
REMARK  127  A    between atoms: _304  and  _305
REMARK  128  A    between atoms: _304  and  _307
REMARK  129  A    between atoms: _310  and  _312
REMARK  130  A    between atoms: _312  and  _313
REMARK  131  A    between atoms: _316  and  _318
REMARK  132  A    between atoms: _318  and  _319
REMARK  133  A    between atoms: _318  and  _321
REMARK  134  A    between atoms: _321  and  _322
REMARK  135  A    between atoms: _325  and  _327
REMARK  136  A    between atoms: _327  and  _328
REMARK  137  A    between atoms: _327  and  _330
REMARK  138  A    between atoms: _330  and  _331
REMARK  139  A    between atoms: _331  and  _332
REMARK  140  A    between atoms: _335  and  _337
REMARK  141  A    between atoms: _337  and  _338
REMARK  142  A    between atoms: _337  and  _340
REMARK  143  A    between atoms: _340  and  _341
REMARK  144  A    between atoms: _341  and  _342
REMARK  145  A    between atoms: _345  and  _347
REMARK  146  A    between atoms: _347  and  _348
REMARK  147  A    between atoms: _347  and  _350
REMARK  148  A    between atoms: _353  and  _355
REMARK  149  A    between atoms: _355  and  _356
REMARK  150  A    between atoms: _355  and  _358
REMARK  151  A    between atoms: _358  and  _359
REMARK  152  A    between atoms: _361  and  _363
REMARK  153  A    between atoms: _363  and  _364
REMARK  154  A    between atoms: _363  and  _366
REMARK  155  A    between atoms: _366  and  _367
REMARK  156  A    between atoms: _367  and  _368
REMARK  157  A    between atoms: _368  and  _369
REMARK  158  A    between atoms: _369  and  _370
REMARK  159  A    between atoms: _374  and  _376
REMARK  160  A    between atoms: _376  and  _377
REMARK  161  A    between atoms: _376  and  _379
REMARK  162  A    between atoms: _379  and  _380
REMARK  163  A    between atoms: _385  and  _386
REMARK  164  A    between atoms: _388  and  _390
REMARK  165  A    between atoms: _390  and  _391
REMARK  166  A    between atoms: _393  and  _395
REMARK  167  A    between atoms: _395  and  _396
REMARK  168  A    between atoms: _395  and  _398
REMARK  169  A    between atoms: _401  and  _403
REMARK  170  A    between atoms: _403  and  _404
REMARK  171  A    between atoms: _403  and  _406
REMARK  172  A    between atoms: _406  and  _407
REMARK  173  A    between atoms: _407  and  _408
REMARK  174  A    between atoms: _410  and  _412
REMARK  175  A    between atoms: _412  and  _413
REMARK  176  A    between atoms: _412  and  _415
REMARK  177  A    between atoms: _418  and  _420
REMARK  178  A    between atoms: _420  and  _421
REMARK  179  A    between atoms: _420  and  _423
REMARK  180  A    between atoms: _423  and  _424
REMARK  181  A    between atoms: _424  and  _425
REMARK  182  A    between atoms: _428  and  _430
REMARK  183  A    between atoms: _430  and  _431
REMARK  184  A    between atoms: _430  and  _433
REMARK  185  A    between atoms: _433  and  _434
REMARK  186  A    between atoms: _434  and  _435
REMARK  187  A    between atoms: _435  and  _436
REMARK  188  A    between atoms: _436  and  _437
REMARK  189  A    between atoms: _441  and  _443
REMARK  190  A    between atoms: _443  and  _444
REMARK  191  A    between atoms: _443  and  _446
REMARK  192  A    between atoms: _446  and  _447
REMARK  193  A    between atoms: _450  and  _452
REMARK  194  A    between atoms: _452  and  _453
REMARK  195  A    between atoms: _456  and  _458
REMARK  196  A    between atoms: _458  and  _459
REMARK  197  A    between atoms: _458  and  _461
REMARK  198  A    between atoms: _464  and  _466
REMARK  199  A    between atoms: _466  and  _467
REMARK  200  A    between atoms: _466  and  _469
REMARK  201  A    between atoms: _469  and  _470
REMARK  202  A    between atoms: _473  and  _475
REMARK  203  A    between atoms: _475  and  _476
REMARK  204  A    between atoms: _478  and  _480
REMARK  205  A    between atoms: _480  and  _481
REMARK  206  A    between atoms: _480  and  _483
REMARK  207  A    between atoms: _483  and  _484
REMARK  208  A    between atoms: _484  and  _485
REMARK  209  A    between atoms: _485  and  _486
REMARK  210  A    between atoms: _495  and  _497
REMARK  211  A    between atoms: _497  and  _498
REMARK  212  A    between atoms: _497  and  _500
REMARK  213  A    between atoms: _500  and  _501
REMARK  214  A    between atoms: _506  and  _507
REMARK  215  A    between atoms: _509  and  _511
REMARK  216  A    between atoms: _511  and  _512
REMARK  217  A    between atoms: _511  and  _514
REMARK  218  A    between atoms: _514  and  _515
REMARK  219  A    between atoms: _520  and  _522
REMARK  220  A    between atoms: _522  and  _523
REMARK  221  A    between atoms: _522  and  _525
REMARK  222  A    between atoms: _525  and  _526
REMARK  223  A    between atoms: _526  and  _527
REMARK  224  A    between atoms: _530  and  _532
REMARK  225  A    between atoms: _532  and  _533
REMARK  226  A    between atoms: _532  and  _535
REMARK  227  A    between atoms: _535  and  _536
REMARK  228  A    between atoms: _539  and  _541
REMARK  229  A    between atoms: _541  and  _542
REMARK  230  A    between atoms: _541  and  _544
REMARK  231  A    between atoms: _544  and  _545
REMARK  232  A    between atoms: _545  and  _546
REMARK  233  A    between atoms: _551  and  _553
REMARK  234  A    between atoms: _553  and  _554
REMARK  235  A    between atoms: _553  and  _556
REMARK  236  A    between atoms: _556  and  _557
REMARK  237  A    between atoms: _560  and  _562
REMARK  238  A    between atoms: _562  and  _563
REMARK  239  A    between atoms: _562  and  _565
REMARK  240  A    between atoms: _565  and  _566
REMARK  241  A    between atoms: _569  and  _571
REMARK  242  A    between atoms: _571  and  _572
REMARK  243  A    between atoms: _571  and  _574
REMARK  244  A    between atoms: _574  and  _575
REMARK  245  A    between atoms: _578  and  _580
REMARK  246  A    between atoms: _580  and  _581
REMARK  247  A    between atoms: _580  and  _583
REMARK  248  A    between atoms: _583  and  _584
REMARK  249  A    between atoms: _587  and  _589
REMARK  250  A    between atoms: _589  and  _590
REMARK  251  A    between atoms: _589  and  _592
REMARK  252  A    between atoms: _592  and  _593
REMARK  253  A    between atoms: _593  and  _594
REMARK  254  A    between atoms: _594  and  _595
REMARK  255  A    between atoms: _604  and  _606
REMARK  256  A    between atoms: _606  and  _607
REMARK  257  A    between atoms: _606  and  _609
REMARK  258  A    between atoms: _609  and  _610
REMARK  259  A    between atoms: _615  and  _616
REMARK  260  A    between atoms: _618  and  _620
REMARK  261  A    between atoms: _620  and  _621
REMARK  262  A    between atoms: _620  and  _623
REMARK  263  A    between atoms: _623  and  _624
REMARK  264  A    between atoms: _627  and  _629
REMARK  265  A    between atoms: _629  and  _630
REMARK  266  A    between atoms: _629  and  _632
REMARK  267  A    between atoms: _634  and  _636
REMARK  268  A    between atoms: _636  and  _637
REMARK  269  A    between atoms: _639  and  _641
REMARK  270  A    between atoms: _641  and  _642
REMARK  271  A    between atoms: _641  and  _644
REMARK  272  A    between atoms: _644  and  _645
REMARK                            x       y       z     vdW  Elec       q    Type
REMARK                         _______ _______ _______ _____ _____    ______ ____
ROOT
ATOM      1 MG   UNL     1      56.938  43.672  49.454  0.00  0.00    +0.000 Mg
ENDROOT
TORSDOF 0
REMARK  Name = ../refined-set-2016/3juk/3juk_pocket.pdb
REMARK  272 active torsions:
REMARK  status: ('A' for Active; 'I' for Inactive)
REMARK    1  A    between atoms: _1  and  _3
REMARK    2  A    between atoms: _3  and  _4
REMARK    3  A    between atoms: _3  and  _6
REMARK    4  A    between atoms: _6  and  _7
REMARK    5  A    between atoms: _14  and  _15
REMARK    6  A    between atoms: _20  and  _22
REMARK    7  A    between atoms: _22  and  _23
REMARK    8  A    between atoms: _26  and  _28
REMARK    9  A    between atoms: _28  and  _29
REMARK   10  A    between atoms: _32  and  _34
REMARK   11  A    between atoms: _34  and  _35
REMARK   12  A    between atoms: _37  and  _39
REMARK   13  A    between atoms: _39  and  _40
REMARK   14  A    between atoms: _39  and  _42
REMARK   15  A    between atoms: _42  and  _43
REMARK   16  A    between atoms: _48  and  _49
REMARK   17  A    between atoms: _51  and  _53
REMARK   18  A    between atoms: _53  and  _54
REMARK   19  A    between atoms: _56  and  _58
REMARK   20  A    between atoms: _58  and  _59
REMARK   21  A    between atoms: _58  and  _61
REMARK   22  A    between atoms: _61  and  _62
REMARK   23  A    between atoms: _65  and  _67
REMARK   24  A    between atoms: _67  and  _68
REMARK   25  A    between atoms: _67  and  _70
REMARK   26  A    between atoms: _70  and  _71
REMARK   27  A    between atoms: _71  and  _72
REMARK   28  A    between atoms: _72  and  _73
REMARK   29  A    between atoms: _83  and  _84
REMARK   30  A    between atoms: _89  and  _91
REMARK   31  A    between atoms: _91  and  _92
REMARK   32  A    between atoms: _91  and  _94
REMARK   33  A    between atoms: _94  and  _95
REMARK   34  A    between atoms: _95  and  _96
REMARK   35  A    between atoms: _96  and  _97
REMARK   36  A    between atoms: _97  and  _98
REMARK   37  A    between atoms: _102  and  _104
REMARK   38  A    between atoms: _104  and  _105
REMARK   39  A    between atoms: _104  and  _107
REMARK   40  A    between atoms: _107  and  _108
REMARK   41  A    between atoms: _108  and  _109
REMARK   42  A    between atoms: _112  and  _114
REMARK   43  A    between atoms: _114  and  _115
REMARK   44  A    between atoms: _114  and  _117
REMARK   45  A    between atoms: _117  and  _118
REMARK   46  A    between atoms: _121  and  _123
REMARK   47  A    between atoms: _123  and  _124
REMARK   48  A    between atoms: _123  and  _126
REMARK   49  A    between atoms: _129  and  _131
REMARK   50  A    between atoms: _131  and  _132
REMARK   51  A    between atoms: _131  and  _134
REMARK   52  A    between atoms: _134  and  _135
REMARK   53  A    between atoms: _138  and  _140
REMARK   54  A    between atoms: _140  and  _141
REMARK   55  A    between atoms: _143  and  _145
REMARK   56  A    between atoms: _145  and  _146
REMARK   57  A    between atoms: _145  and  _148
REMARK   58  A    between atoms: _148  and  _149
REMARK   59  A    between atoms: _149  and  _150
REMARK   60  A    between atoms: _155  and  _157
REMARK   61  A    between atoms: _157  and  _158
REMARK   62  A    between atoms: _157  and  _160
REMARK   63  A    between atoms: _160  and  _161
REMARK   64  A    between atoms: _161  and  _162
REMARK   65  A    between atoms: _167  and  _169
REMARK   66  A    between atoms: _169  and  _170
REMARK   67  A    between atoms: _169  and  _172
REMARK   68  A    between atoms: _172  and  _173
REMARK   69  A    between atoms: _173  and  _174
REMARK   70  A    between atoms: _176  and  _178
REMARK   71  A    between atoms: _178  and  _179
REMARK   72  A    between atoms: _178  and  _181
REMARK   73  A    between atoms: _181  and  _182
REMARK   74  A    between atoms: _182  and  _183
REMARK   75  A    between atoms: _183  and  _184
REMARK   76  A    between atoms: _184  and  _185
REMARK   77  A    between atoms: _189  and  _191
REMARK   78  A    between atoms: _191  and  _192
REMARK   79  A    between atoms: _194  and  _196
REMARK   80  A    between atoms: _196  and  _197
REMARK   81  A    between atoms: _196  and  _199
REMARK   82  A    between atoms: _199  and  _200
REMARK   83  A    between atoms: _203  and  _205
REMARK   84  A    between atoms: _205  and  _206
REMARK   85  A    between atoms: _208  and  _210
REMARK   86  A    between atoms: _210  and  _211
REMARK   87  A    between atoms: _210  and  _213
REMARK   88  A    between atoms: _213  and  _214
REMARK   89  A    between atoms: _219  and  _221
REMARK   90  A    between atoms: _221  and  _222
REMARK   91  A    between atoms: _225  and  _227
REMARK   92  A    between atoms: _227  and  _228
REMARK   93  A    between atoms: _227  and  _230
REMARK   94  A    between atoms: _230  and  _231
REMARK   95  A    between atoms: _234  and  _236
REMARK   96  A    between atoms: _236  and  _237
REMARK   97  A    between atoms: _236  and  _239
REMARK   98  A    between atoms: _239  and  _240
REMARK   99  A    between atoms: _243  and  _245
REMARK  100  A    between atoms: _245  and  _246
REMARK  101  A    between atoms: _245  and  _248
REMARK  102  A    between atoms: _251  and  _253
REMARK  103  A    between atoms: _253  and  _254
REMARK  104  A    between atoms: _253  and  _256
REMARK  105  A    between atoms: _256  and  _257
REMARK  106  A    between atoms: _260  and  _262
REMARK  107  A    between atoms: _262  and  _263
REMARK  108  A    between atoms: _262  and  _265
REMARK  109  A    between atoms: _265  and  _266
REMARK  110  A    between atoms: _269  and  _271
REMARK  111  A    between atoms: _271  and  _272
REMARK  112  A    between atoms: _275  and  _277
REMARK  113  A    between atoms: _277  and  _278
REMARK  114  A    between atoms: _277  and  _280
REMARK  115  A    between atoms: _280  and  _281
REMARK  116  A    between atoms: _281  and  _282
REMARK  117  A    between atoms: _282  and  MG_647
REMARK  118  A    between atoms: _284  and  _286
REMARK  119  A    between atoms: _286  and  _287
REMARK  120  A    between atoms: _286  and  _289
REMARK  121  A    between atoms: _289  and  _290
REMARK  122  A    between atoms: _293  and  _295
REMARK  123  A    between atoms: _295  and  _296
REMARK  124  A    between atoms: _295  and  _298
REMARK  125  A    between atoms: _298  and  _299
REMARK  126  A    between atoms: _302  and  _304
REMARK  127  A    between atoms: _304  and  _305
REMARK  128  A    between atoms: _304  and  _307
REMARK  129  A    between atoms: _310  and  _312
REMARK  130  A    between atoms: _312  and  _313
REMARK  131  A    between atoms: _316  and  _318
REMARK  132  A    between atoms: _318  and  _319
REMARK  133  A    between atoms: _318  and  _321
REMARK  134  A    between atoms: _321  and  _322
REMARK  135  A    between atoms: _325  and  _327
REMARK  136  A    between atoms: _327  and  _328
REMARK  137  A    between atoms: _327  and  _330
REMARK  138  A    between atoms: _330  and  _331
REMARK  139  A    between atoms: _331  and  _332
REMARK  140  A    between atoms: _335  and  _337
REMARK  141  A    between atoms: _337  and  _338
REMARK  142  A    between atoms: _337  and  _340
REMARK  143  A    between atoms: _340  and  _341
REMARK  144  A    between atoms: _341  and  _342
REMARK  145  A    between atoms: _345  and  _347
REMARK  146  A    between atoms: _347  and  _348
REMARK  147  A    between atoms: _347  and  _350
REMARK  148  A    between atoms: _353  and  _355
REMARK  149  A    between atoms: _355  and  _356
REMARK  150  A    between atoms: _355  and  _358
REMARK  151  A    between atoms: _358  and  _359
REMARK  152  A    between atoms: _361  and  _363
REMARK  153  A    between atoms: _363  and  _364
REMARK  154  A    between atoms: _363  and  _366
REMARK  155  A    between atoms: _366  and  _367
REMARK  156  A    between atoms: _367  and  _368
REMARK  157  A    between atoms: _368  and  _369
REMARK  158  A    between atoms: _369  and  _370
REMARK  159  A    between atoms: _374  and  _376
REMARK  160  A    between atoms: _376  and  _377
REMARK  161  A    between atoms: _376  and  _379
REMARK  162  A    between atoms: _379  and  _380
REMARK  163  A    between atoms: _385  and  _386
REMARK  164  A    between atoms: _388  and  _390
REMARK  165  A    between atoms: _390  and  _391
REMARK  166  A    between atoms: _393  and  _395
REMARK  167  A    between atoms: _395  and  _396
REMARK  168  A    between atoms: _395  and  _398
REMARK  169  A    between atoms: _401  and  _403
REMARK  170  A    between atoms: _403  and  _404
REMARK  171  A    between atoms: _403  and  _406
REMARK  172  A    between atoms: _406  and  _407
REMARK  173  A    between atoms: _407  and  _408
REMARK  174  A    between atoms: _410  and  _412
REMARK  175  A    between atoms: _412  and  _413
REMARK  176  A    between atoms: _412  and  _415
REMARK  177  A    between atoms: _418  and  _420
REMARK  178  A    between atoms: _420  and  _421
REMARK  179  A    between atoms: _420  and  _423
REMARK  180  A    between atoms: _423  and  _424
REMARK  181  A    between atoms: _424  and  _425
REMARK  182  A    between atoms: _428  and  _430
REMARK  183  A    between atoms: _430  and  _431
REMARK  184  A    between atoms: _430  and  _433
REMARK  185  A    between atoms: _433  and  _434
REMARK  186  A    between atoms: _434  and  _435
REMARK  187  A    between atoms: _435  and  _436
REMARK  188  A    between atoms: _436  and  _437
REMARK  189  A    between atoms: _441  and  _443
REMARK  190  A    between atoms: _443  and  _444
REMARK  191  A    between atoms: _443  and  _446
REMARK  192  A    between atoms: _446  and  _447
REMARK  193  A    between atoms: _450  and  _452
REMARK  194  A    between atoms: _452  and  _453
REMARK  195  A    between atoms: _456  and  _458
REMARK  196  A    between atoms: _458  and  _459
REMARK  197  A    between atoms: _458  and  _461
REMARK  198  A    between atoms: _464  and  _466
REMARK  199  A    between atoms: _466  and  _467
REMARK  200  A    between atoms: _466  and  _469
REMARK  201  A    between atoms: _469  and  _470
REMARK  202  A    between atoms: _473  and  _475
REMARK  203  A    between atoms: _475  and  _476
REMARK  204  A    between atoms: _478  and  _480
REMARK  205  A    between atoms: _480  and  _481
REMARK  206  A    between atoms: _480  and  _483
REMARK  207  A    between atoms: _483  and  _484
REMARK  208  A    between atoms: _484  and  _485
REMARK  209  A    between atoms: _485  and  _486
REMARK  210  A    between atoms: _495  and  _497
REMARK  211  A    between atoms: _497  and  _498
REMARK  212  A    between atoms: _497  and  _500
REMARK  213  A    between atoms: _500  and  _501
REMARK  214  A    between atoms: _506  and  _507
REMARK  215  A    between atoms: _509  and  _511
REMARK  216  A    between atoms: _511  and  _512
REMARK  217  A    between atoms: _511  and  _514
REMARK  218  A    between atoms: _514  and  _515
REMARK  219  A    between atoms: _520  and  _522
REMARK  220  A    between atoms: _522  and  _523
REMARK  221  A    between atoms: _522  and  _525
REMARK  222  A    between atoms: _525  and  _526
REMARK  223  A    between atoms: _526  and  _527
REMARK  224  A    between atoms: _530  and  _532
REMARK  225  A    between atoms: _532  and  _533
REMARK  226  A    between atoms: _532  and  _535
REMARK  227  A    between atoms: _535  and  _536
REMARK  228  A    between atoms: _539  and  _541
REMARK  229  A    between atoms: _541  and  _542
REMARK  230  A    between atoms: _541  and  _544
REMARK  231  A    between atoms: _544  and  _545
REMARK  232  A    between atoms: _545  and  _546
REMARK  233  A    between atoms: _551  and  _553
REMARK  234  A    between atoms: _553  and  _554
REMARK  235  A    between atoms: _553  and  _556
REMARK  236  A    between atoms: _556  and  _557
REMARK  237  A    between atoms: _560  and  _562
REMARK  238  A    between atoms: _562  and  _563
REMARK  239  A    between atoms: _562  and  _565
REMARK  240  A    between atoms: _565  and  _566
REMARK  241  A    between atoms: _569  and  _571
REMARK  242  A    between atoms: _571  and  _572
REMARK  243  A    between atoms: _571  and  _574
REMARK  244  A    between atoms: _574  and  _575
REMARK  245  A    between atoms: _578  and  _580
REMARK  246  A    between atoms: _580  and  _581
REMARK  247  A    between atoms: _580  and  _583
REMARK  248  A    between atoms: _583  and  _584
REMARK  249  A    between atoms: _587  and  _589
REMARK  250  A    between atoms: _589  and  _590
REMARK  251  A    between atoms: _589  and  _592
REMARK  252  A    between atoms: _592  and  _593
REMARK  253  A    between atoms: _593  and  _594
REMARK  254  A    between atoms: _594  and  _595
REMARK  255  A    between atoms: _604  and  _606
REMARK  256  A    between atoms: _606  and  _607
REMARK  257  A    between atoms: _606  and  _609
REMARK  258  A    between atoms: _609  and  _610
REMARK  259  A    between atoms: _615  and  _616
REMARK  260  A    between atoms: _618  and  _620
REMARK  261  A    between atoms: _620  and  _621
REMARK  262  A    between atoms: _620  and  _623
REMARK  263  A    between atoms: _623  and  _624
REMARK  264  A    between atoms: _627  and  _629
REMARK  265  A    between atoms: _629  and  _630
REMARK  266  A    between atoms: _629  and  _632
REMARK  267  A    between atoms: _634  and  _636
REMARK  268  A    between atoms: _636  and  _637
REMARK  269  A    between atoms: _639  and  _641
REMARK  270  A    between atoms: _641  and  _642
REMARK  271  A    between atoms: _641  and  _644
REMARK  272  A    between atoms: _644  and  _645
REMARK                            x       y       z     vdW  Elec       q    Type
REMARK                         _______ _______ _______ _____ _____    ______ ____
ROOT
ATOM      1  O   HOH     1      62.179  38.379  48.087  0.00  0.00    +0.000 OA
ENDROOT
TORSDOF 0
REMARK  Name = ../refined-set-2016/3juk/3juk_pocket.pdb
REMARK  272 active torsions:
REMARK  status: ('A' for Active; 'I' for Inactive)
REMARK    1  A    between atoms: _1  and  _3
REMARK    2  A    between atoms: _3  and  _4
REMARK    3  A    between atoms: _3  and  _6
REMARK    4  A    between atoms: _6  and  _7
REMARK    5  A    between atoms: _14  and  _15
REMARK    6  A    between atoms: _20  and  _22
REMARK    7  A    between atoms: _22  and  _23
REMARK    8  A    between atoms: _26  and  _28
REMARK    9  A    between atoms: _28  and  _29
REMARK   10  A    between atoms: _32  and  _34
REMARK   11  A    between atoms: _34  and  _35
REMARK   12  A    between atoms: _37  and  _39
REMARK   13  A    between atoms: _39  and  _40
REMARK   14  A    between atoms: _39  and  _42
REMARK   15  A    between atoms: _42  and  _43
REMARK   16  A    between atoms: _48  and  _49
REMARK   17  A    between atoms: _51  and  _53
REMARK   18  A    between atoms: _53  and  _54
REMARK   19  A    between atoms: _56  and  _58
REMARK   20  A    between atoms: _58  and  _59
REMARK   21  A    between atoms: _58  and  _61
REMARK   22  A    between atoms: _61  and  _62
REMARK   23  A    between atoms: _65  and  _67
REMARK   24  A    between atoms: _67  and  _68
REMARK   25  A    between atoms: _67  and  _70
REMARK   26  A    between atoms: _70  and  _71
REMARK   27  A    between atoms: _71  and  _72
REMARK   28  A    between atoms: _72  and  _73
REMARK   29  A    between atoms: _83  and  _84
REMARK   30  A    between atoms: _89  and  _91
REMARK   31  A    between atoms: _91  and  _92
REMARK   32  A    between atoms: _91  and  _94
REMARK   33  A    between atoms: _94  and  _95
REMARK   34  A    between atoms: _95  and  _96
REMARK   35  A    between atoms: _96  and  _97
REMARK   36  A    between atoms: _97  and  _98
REMARK   37  A    between atoms: _102  and  _104
REMARK   38  A    between atoms: _104  and  _105
REMARK   39  A    between atoms: _104  and  _107
REMARK   40  A    between atoms: _107  and  _108
REMARK   41  A    between atoms: _108  and  _109
REMARK   42  A    between atoms: _112  and  _114
REMARK   43  A    between atoms: _114  and  _115
REMARK   44  A    between atoms: _114  and  _117
REMARK   45  A    between atoms: _117  and  _118
REMARK   46  A    between atoms: _121  and  _123
REMARK   47  A    between atoms: _123  and  _124
REMARK   48  A    between atoms: _123  and  _126
REMARK   49  A    between atoms: _129  and  _131
REMARK   50  A    between atoms: _131  and  _132
REMARK   51  A    between atoms: _131  and  _134
REMARK   52  A    between atoms: _134  and  _135
REMARK   53  A    between atoms: _138  and  _140
REMARK   54  A    between atoms: _140  and  _141
REMARK   55  A    between atoms: _143  and  _145
REMARK   56  A    between atoms: _145  and  _146
REMARK   57  A    between atoms: _145  and  _148
REMARK   58  A    between atoms: _148  and  _149
REMARK   59  A    between atoms: _149  and  _150
REMARK   60  A    between atoms: _155  and  _157
REMARK   61  A    between atoms: _157  and  _158
REMARK   62  A    between atoms: _157  and  _160
REMARK   63  A    between atoms: _160  and  _161
REMARK   64  A    between atoms: _161  and  _162
REMARK   65  A    between atoms: _167  and  _169
REMARK   66  A    between atoms: _169  and  _170
REMARK   67  A    between atoms: _169  and  _172
REMARK   68  A    between atoms: _172  and  _173
REMARK   69  A    between atoms: _173  and  _174
REMARK   70  A    between atoms: _176  and  _178
REMARK   71  A    between atoms: _178  and  _179
REMARK   72  A    between atoms: _178  and  _181
REMARK   73  A    between atoms: _181  and  _182
REMARK   74  A    between atoms: _182  and  _183
REMARK   75  A    between atoms: _183  and  _184
REMARK   76  A    between atoms: _184  and  _185
REMARK   77  A    between atoms: _189  and  _191
REMARK   78  A    between atoms: _191  and  _192
REMARK   79  A    between atoms: _194  and  _196
REMARK   80  A    between atoms: _196  and  _197
REMARK   81  A    between atoms: _196  and  _199
REMARK   82  A    between atoms: _199  and  _200
REMARK   83  A    between atoms: _203  and  _205
REMARK   84  A    between atoms: _205  and  _206
REMARK   85  A    between atoms: _208  and  _210
REMARK   86  A    between atoms: _210  and  _211
REMARK   87  A    between atoms: _210  and  _213
REMARK   88  A    between atoms: _213  and  _214
REMARK   89  A    between atoms: _219  and  _221
REMARK   90  A    between atoms: _221  and  _222
REMARK   91  A    between atoms: _225  and  _227
REMARK   92  A    between atoms: _227  and  _228
REMARK   93  A    between atoms: _227  and  _230
REMARK   94  A    between atoms: _230  and  _231
REMARK   95  A    between atoms: _234  and  _236
REMARK   96  A    between atoms: _236  and  _237
REMARK   97  A    between atoms: _236  and  _239
REMARK   98  A    between atoms: _239  and  _240
REMARK   99  A    between atoms: _243  and  _245
REMARK  100  A    between atoms: _245  and  _246
REMARK  101  A    between atoms: _245  and  _248
REMARK  102  A    between atoms: _251  and  _253
REMARK  103  A    between atoms: _253  and  _254
REMARK  104  A    between atoms: _253  and  _256
REMARK  105  A    between atoms: _256  and  _257
REMARK  106  A    between atoms: _260  and  _262
REMARK  107  A    between atoms: _262  and  _263
REMARK  108  A    between atoms: _262  and  _265
REMARK  109  A    between atoms: _265  and  _266
REMARK  110  A    between atoms: _269  and  _271
REMARK  111  A    between atoms: _271  and  _272
REMARK  112  A    between atoms: _275  and  _277
REMARK  113  A    between atoms: _277  and  _278
REMARK  114  A    between atoms: _277  and  _280
REMARK  115  A    between atoms: _280  and  _281
REMARK  116  A    between atoms: _281  and  _282
REMARK  117  A    between atoms: _282  and  MG_647
REMARK  118  A    between atoms: _284  and  _286
REMARK  119  A    between atoms: _286  and  _287
REMARK  120  A    between atoms: _286  and  _289
REMARK  121  A    between atoms: _289  and  _290
REMARK  122  A    between atoms: _293  and  _295
REMARK  123  A    between atoms: _295  and  _296
REMARK  124  A    between atoms: _295  and  _298
REMARK  125  A    between atoms: _298  and  _299
REMARK  126  A    between atoms: _302  and  _304
REMARK  127  A    between atoms: _304  and  _305
REMARK  128  A    between atoms: _304  and  _307
REMARK  129  A    between atoms: _310  and  _312
REMARK  130  A    between atoms: _312  and  _313
REMARK  131  A    between atoms: _316  and  _318
REMARK  132  A    between atoms: _318  and  _319
REMARK  133  A    between atoms: _318  and  _321
REMARK  134  A    between atoms: _321  and  _322
REMARK  135  A    between atoms: _325  and  _327
REMARK  136  A    between atoms: _327  and  _328
REMARK  137  A    between atoms: _327  and  _330
REMARK  138  A    between atoms: _330  and  _331
REMARK  139  A    between atoms: _331  and  _332
REMARK  140  A    between atoms: _335  and  _337
REMARK  141  A    between atoms: _337  and  _338
REMARK  142  A    between atoms: _337  and  _340
REMARK  143  A    between atoms: _340  and  _341
REMARK  144  A    between atoms: _341  and  _342
REMARK  145  A    between atoms: _345  and  _347
REMARK  146  A    between atoms: _347  and  _348
REMARK  147  A    between atoms: _347  and  _350
REMARK  148  A    between atoms: _353  and  _355
REMARK  149  A    between atoms: _355  and  _356
REMARK  150  A    between atoms: _355  and  _358
REMARK  151  A    between atoms: _358  and  _359
REMARK  152  A    between atoms: _361  and  _363
REMARK  153  A    between atoms: _363  and  _364
REMARK  154  A    between atoms: _363  and  _366
REMARK  155  A    between atoms: _366  and  _367
REMARK  156  A    between atoms: _367  and  _368
REMARK  157  A    between atoms: _368  and  _369
REMARK  158  A    between atoms: _369  and  _370
REMARK  159  A    between atoms: _374  and  _376
REMARK  160  A    between atoms: _376  and  _377
REMARK  161  A    between atoms: _376  and  _379
REMARK  162  A    between atoms: _379  and  _380
REMARK  163  A    between atoms: _385  and  _386
REMARK  164  A    between atoms: _388  and  _390
REMARK  165  A    between atoms: _390  and  _391
REMARK  166  A    between atoms: _393  and  _395
REMARK  167  A    between atoms: _395  and  _396
REMARK  168  A    between atoms: _395  and  _398
REMARK  169  A    between atoms: _401  and  _403
REMARK  170  A    between atoms: _403  and  _404
REMARK  171  A    between atoms: _403  and  _406
REMARK  172  A    between atoms: _406  and  _407
REMARK  173  A    between atoms: _407  and  _408
REMARK  174  A    between atoms: _410  and  _412
REMARK  175  A    between atoms: _412  and  _413
REMARK  176  A    between atoms: _412  and  _415
REMARK  177  A    between atoms: _418  and  _420
REMARK  178  A    between atoms: _420  and  _421
REMARK  179  A    between atoms: _420  and  _423
REMARK  180  A    between atoms: _423  and  _424
REMARK  181  A    between atoms: _424  and  _425
REMARK  182  A    between atoms: _428  and  _430
REMARK  183  A    between atoms: _430  and  _431
REMARK  184  A    between atoms: _430  and  _433
REMARK  185  A    between atoms: _433  and  _434
REMARK  186  A    between atoms: _434  and  _435
REMARK  187  A    between atoms: _435  and  _436
REMARK  188  A    between atoms: _436  and  _437
REMARK  189  A    between atoms: _441  and  _443
REMARK  190  A    between atoms: _443  and  _444
REMARK  191  A    between atoms: _443  and  _446
REMARK  192  A    between atoms: _446  and  _447
REMARK  193  A    between atoms: _450  and  _452
REMARK  194  A    between atoms: _452  and  _453
REMARK  195  A    between atoms: _456  and  _458
REMARK  196  A    between atoms: _458  and  _459
REMARK  197  A    between atoms: _458  and  _461
REMARK  198  A    between atoms: _464  and  _466
REMARK  199  A    between atoms: _466  and  _467
REMARK  200  A    between atoms: _466  and  _469
REMARK  201  A    between atoms: _469  and  _470
REMARK  202  A    between atoms: _473  and  _475
REMARK  203  A    between atoms: _475  and  _476
REMARK  204  A    between atoms: _478  and  _480
REMARK  205  A    between atoms: _480  and  _481
REMARK  206  A    between atoms: _480  and  _483
REMARK  207  A    between atoms: _483  and  _484
REMARK  208  A    between atoms: _484  and  _485
REMARK  209  A    between atoms: _485  and  _486
REMARK  210  A    between atoms: _495  and  _497
REMARK  211  A    between atoms: _497  and  _498
REMARK  212  A    between atoms: _497  and  _500
REMARK  213  A    between atoms: _500  and  _501
REMARK  214  A    between atoms: _506  and  _507
REMARK  215  A    between atoms: _509  and  _511
REMARK  216  A    between atoms: _511  and  _512
REMARK  217  A    between atoms: _511  and  _514
REMARK  218  A    between atoms: _514  and  _515
REMARK  219  A    between atoms: _520  and  _522
REMARK  220  A    between atoms: _522  and  _523
REMARK  221  A    between atoms: _522  and  _525
REMARK  222  A    between atoms: _525  and  _526
REMARK  223  A    between atoms: _526  and  _527
REMARK  224  A    between atoms: _530  and  _532
REMARK  225  A    between atoms: _532  and  _533
REMARK  226  A    between atoms: _532  and  _535
REMARK  227  A    between atoms: _535  and  _536
REMARK  228  A    between atoms: _539  and  _541
REMARK  229  A    between atoms: _541  and  _542
REMARK  230  A    between atoms: _541  and  _544
REMARK  231  A    between atoms: _544  and  _545
REMARK  232  A    between atoms: _545  and  _546
REMARK  233  A    between atoms: _551  and  _553
REMARK  234  A    between atoms: _553  and  _554
REMARK  235  A    between atoms: _553  and  _556
REMARK  236  A    between atoms: _556  and  _557
REMARK  237  A    between atoms: _560  and  _562
REMARK  238  A    between atoms: _562  and  _563
REMARK  239  A    between atoms: _562  and  _565
REMARK  240  A    between atoms: _565  and  _566
REMARK  241  A    between atoms: _569  and  _571
REMARK  242  A    between atoms: _571  and  _572
REMARK  243  A    between atoms: _571  and  _574
REMARK  244  A    between atoms: _574  and  _575
REMARK  245  A    between atoms: _578  and  _580
REMARK  246  A    between atoms: _580  and  _581
REMARK  247  A    between atoms: _580  and  _583
REMARK  248  A    between atoms: _583  and  _584
REMARK  249  A    between atoms: _587  and  _589
REMARK  250  A    between atoms: _589  and  _590
REMARK  251  A    between atoms: _589  and  _592
REMARK  252  A    between atoms: _592  and  _593
REMARK  253  A    between atoms: _593  and  _594
REMARK  254  A    between atoms: _594  and  _595
REMARK  255  A    between atoms: _604  and  _606
REMARK  256  A    between atoms: _606  and  _607
REMARK  257  A    between atoms: _606  and  _609
REMARK  258  A    between atoms: _609  and  _610
REMARK  259  A    between atoms: _615  and  _616
REMARK  260  A    between atoms: _618  and  _620
REMARK  261  A    between atoms: _620  and  _621
REMARK  262  A    between atoms: _620  and  _623
REMARK  263  A    between atoms: _623  and  _624
REMARK  264  A    between atoms: _627  and  _629
REMARK  265  A    between atoms: _629  and  _630
REMARK  266  A    between atoms: _629  and  _632
REMARK  267  A    between atoms: _634  and  _636
REMARK  268  A    between atoms: _636  and  _637
REMARK  269  A    between atoms: _639  and  _641
REMARK  270  A    between atoms: _641  and  _642
REMARK  271  A    between atoms: _641  and  _644
REMARK  272  A    between atoms: _644  and  _645
REMARK                            x       y       z     vdW  Elec       q    Type
REMARK                         _______ _______ _______ _____ _____    ______ ____
ROOT
ATOM      1  O   HOH     1      56.380  41.865  62.725  0.00  0.00    +0.000 OA
ENDROOT
TORSDOF 0
REMARK  Name = ../refined-set-2016/3juk/3juk_pocket.pdb
REMARK  272 active torsions:
REMARK  status: ('A' for Active; 'I' for Inactive)
REMARK    1  A    between atoms: _1  and  _3
REMARK    2  A    between atoms: _3  and  _4
REMARK    3  A    between atoms: _3  and  _6
REMARK    4  A    between atoms: _6  and  _7
REMARK    5  A    between atoms: _14  and  _15
REMARK    6  A    between atoms: _20  and  _22
REMARK    7  A    between atoms: _22  and  _23
REMARK    8  A    between atoms: _26  and  _28
REMARK    9  A    between atoms: _28  and  _29
REMARK   10  A    between atoms: _32  and  _34
REMARK   11  A    between atoms: _34  and  _35
REMARK   12  A    between atoms: _37  and  _39
REMARK   13  A    between atoms: _39  and  _40
REMARK   14  A    between atoms: _39  and  _42
REMARK   15  A    between atoms: _42  and  _43
REMARK   16  A    between atoms: _48  and  _49
REMARK   17  A    between atoms: _51  and  _53
REMARK   18  A    between atoms: _53  and  _54
REMARK   19  A    between atoms: _56  and  _58
REMARK   20  A    between atoms: _58  and  _59
REMARK   21  A    between atoms: _58  and  _61
REMARK   22  A    between atoms: _61  and  _62
REMARK   23  A    between atoms: _65  and  _67
REMARK   24  A    between atoms: _67  and  _68
REMARK   25  A    between atoms: _67  and  _70
REMARK   26  A    between atoms: _70  and  _71
REMARK   27  A    between atoms: _71  and  _72
REMARK   28  A    between atoms: _72  and  _73
REMARK   29  A    between atoms: _83  and  _84
REMARK   30  A    between atoms: _89  and  _91
REMARK   31  A    between atoms: _91  and  _92
REMARK   32  A    between atoms: _91  and  _94
REMARK   33  A    between atoms: _94  and  _95
REMARK   34  A    between atoms: _95  and  _96
REMARK   35  A    between atoms: _96  and  _97
REMARK   36  A    between atoms: _97  and  _98
REMARK   37  A    between atoms: _102  and  _104
REMARK   38  A    between atoms: _104  and  _105
REMARK   39  A    between atoms: _104  and  _107
REMARK   40  A    between atoms: _107  and  _108
REMARK   41  A    between atoms: _108  and  _109
REMARK   42  A    between atoms: _112  and  _114
REMARK   43  A    between atoms: _114  and  _115
REMARK   44  A    between atoms: _114  and  _117
REMARK   45  A    between atoms: _117  and  _118
REMARK   46  A    between atoms: _121  and  _123
REMARK   47  A    between atoms: _123  and  _124
REMARK   48  A    between atoms: _123  and  _126
REMARK   49  A    between atoms: _129  and  _131
REMARK   50  A    between atoms: _131  and  _132
REMARK   51  A    between atoms: _131  and  _134
REMARK   52  A    between atoms: _134  and  _135
REMARK   53  A    between atoms: _138  and  _140
REMARK   54  A    between atoms: _140  and  _141
REMARK   55  A    between atoms: _143  and  _145
REMARK   56  A    between atoms: _145  and  _146
REMARK   57  A    between atoms: _145  and  _148
REMARK   58  A    between atoms: _148  and  _149
REMARK   59  A    between atoms: _149  and  _150
REMARK   60  A    between atoms: _155  and  _157
REMARK   61  A    between atoms: _157  and  _158
REMARK   62  A    between atoms: _157  and  _160
REMARK   63  A    between atoms: _160  and  _161
REMARK   64  A    between atoms: _161  and  _162
REMARK   65  A    between atoms: _167  and  _169
REMARK   66  A    between atoms: _169  and  _170
REMARK   67  A    between atoms: _169  and  _172
REMARK   68  A    between atoms: _172  and  _173
REMARK   69  A    between atoms: _173  and  _174
REMARK   70  A    between atoms: _176  and  _178
REMARK   71  A    between atoms: _178  and  _179
REMARK   72  A    between atoms: _178  and  _181
REMARK   73  A    between atoms: _181  and  _182
REMARK   74  A    between atoms: _182  and  _183
REMARK   75  A    between atoms: _183  and  _184
REMARK   76  A    between atoms: _184  and  _185
REMARK   77  A    between atoms: _189  and  _191
REMARK   78  A    between atoms: _191  and  _192
REMARK   79  A    between atoms: _194  and  _196
REMARK   80  A    between atoms: _196  and  _197
REMARK   81  A    between atoms: _196  and  _199
REMARK   82  A    between atoms: _199  and  _200
REMARK   83  A    between atoms: _203  and  _205
REMARK   84  A    between atoms: _205  and  _206
REMARK   85  A    between atoms: _208  and  _210
REMARK   86  A    between atoms: _210  and  _211
REMARK   87  A    between atoms: _210  and  _213
REMARK   88  A    between atoms: _213  and  _214
REMARK   89  A    between atoms: _219  and  _221
REMARK   90  A    between atoms: _221  and  _222
REMARK   91  A    between atoms: _225  and  _227
REMARK   92  A    between atoms: _227  and  _228
REMARK   93  A    between atoms: _227  and  _230
REMARK   94  A    between atoms: _230  and  _231
REMARK   95  A    between atoms: _234  and  _236
REMARK   96  A    between atoms: _236  and  _237
REMARK   97  A    between atoms: _236  and  _239
REMARK   98  A    between atoms: _239  and  _240
REMARK   99  A    between atoms: _243  and  _245
REMARK  100  A    between atoms: _245  and  _246
REMARK  101  A    between atoms: _245  and  _248
REMARK  102  A    between atoms: _251  and  _253
REMARK  103  A    between atoms: _253  and  _254
REMARK  104  A    between atoms: _253  and  _256
REMARK  105  A    between atoms: _256  and  _257
REMARK  106  A    between atoms: _260  and  _262
REMARK  107  A    between atoms: _262  and  _263
REMARK  108  A    between atoms: _262  and  _265
REMARK  109  A    between atoms: _265  and  _266
REMARK  110  A    between atoms: _269  and  _271
REMARK  111  A    between atoms: _271  and  _272
REMARK  112  A    between atoms: _275  and  _277
REMARK  113  A    between atoms: _277  and  _278
REMARK  114  A    between atoms: _277  and  _280
REMARK  115  A    between atoms: _280  and  _281
REMARK  116  A    between atoms: _281  and  _282
REMARK  117  A    between atoms: _282  and  MG_647
REMARK  118  A    between atoms: _284  and  _286
REMARK  119  A    between atoms: _286  and  _287
REMARK  120  A    between atoms: _286  and  _289
REMARK  121  A    between atoms: _289  and  _290
REMARK  122  A    between atoms: _293  and  _295
REMARK  123  A    between atoms: _295  and  _296
REMARK  124  A    between atoms: _295  and  _298
REMARK  125  A    between atoms: _298  and  _299
REMARK  126  A    between atoms: _302  and  _304
REMARK  127  A    between atoms: _304  and  _305
REMARK  128  A    between atoms: _304  and  _307
REMARK  129  A    between atoms: _310  and  _312
REMARK  130  A    between atoms: _312  and  _313
REMARK  131  A    between atoms: _316  and  _318
REMARK  132  A    between atoms: _318  and  _319
REMARK  133  A    between atoms: _318  and  _321
REMARK  134  A    between atoms: _321  and  _322
REMARK  135  A    between atoms: _325  and  _327
REMARK  136  A    between atoms: _327  and  _328
REMARK  137  A    between atoms: _327  and  _330
REMARK  138  A    between atoms: _330  and  _331
REMARK  139  A    between atoms: _331  and  _332
REMARK  140  A    between atoms: _335  and  _337
REMARK  141  A    between atoms: _337  and  _338
REMARK  142  A    between atoms: _337  and  _340
REMARK  143  A    between atoms: _340  and  _341
REMARK  144  A    between atoms: _341  and  _342
REMARK  145  A    between atoms: _345  and  _347
REMARK  146  A    between atoms: _347  and  _348
REMARK  147  A    between atoms: _347  and  _350
REMARK  148  A    between atoms: _353  and  _355
REMARK  149  A    between atoms: _355  and  _356
REMARK  150  A    between atoms: _355  and  _358
REMARK  151  A    between atoms: _358  and  _359
REMARK  152  A    between atoms: _361  and  _363
REMARK  153  A    between atoms: _363  and  _364
REMARK  154  A    between atoms: _363  and  _366
REMARK  155  A    between atoms: _366  and  _367
REMARK  156  A    between atoms: _367  and  _368
REMARK  157  A    between atoms: _368  and  _369
REMARK  158  A    between atoms: _369  and  _370
REMARK  159  A    between atoms: _374  and  _376
REMARK  160  A    between atoms: _376  and  _377
REMARK  161  A    between atoms: _376  and  _379
REMARK  162  A    between atoms: _379  and  _380
REMARK  163  A    between atoms: _385  and  _386
REMARK  164  A    between atoms: _388  and  _390
REMARK  165  A    between atoms: _390  and  _391
REMARK  166  A    between atoms: _393  and  _395
REMARK  167  A    between atoms: _395  and  _396
REMARK  168  A    between atoms: _395  and  _398
REMARK  169  A    between atoms: _401  and  _403
REMARK  170  A    between atoms: _403  and  _404
REMARK  171  A    between atoms: _403  and  _406
REMARK  172  A    between atoms: _406  and  _407
REMARK  173  A    between atoms: _407  and  _408
REMARK  174  A    between atoms: _410  and  _412
REMARK  175  A    between atoms: _412  and  _413
REMARK  176  A    between atoms: _412  and  _415
REMARK  177  A    between atoms: _418  and  _420
REMARK  178  A    between atoms: _420  and  _421
REMARK  179  A    between atoms: _420  and  _423
REMARK  180  A    between atoms: _423  and  _424
REMARK  181  A    between atoms: _424  and  _425
REMARK  182  A    between atoms: _428  and  _430
REMARK  183  A    between atoms: _430  and  _431
REMARK  184  A    between atoms: _430  and  _433
REMARK  185  A    between atoms: _433  and  _434
REMARK  186  A    between atoms: _434  and  _435
REMARK  187  A    between atoms: _435  and  _436
REMARK  188  A    between atoms: _436  and  _437
REMARK  189  A    between atoms: _441  and  _443
REMARK  190  A    between atoms: _443  and  _444
REMARK  191  A    between atoms: _443  and  _446
REMARK  192  A    between atoms: _446  and  _447
REMARK  193  A    between atoms: _450  and  _452
REMARK  194  A    between atoms: _452  and  _453
REMARK  195  A    between atoms: _456  and  _458
REMARK  196  A    between atoms: _458  and  _459
REMARK  197  A    between atoms: _458  and  _461
REMARK  198  A    between atoms: _464  and  _466
REMARK  199  A    between atoms: _466  and  _467
REMARK  200  A    between atoms: _466  and  _469
REMARK  201  A    between atoms: _469  and  _470
REMARK  202  A    between atoms: _473  and  _475
REMARK  203  A    between atoms: _475  and  _476
REMARK  204  A    between atoms: _478  and  _480
REMARK  205  A    between atoms: _480  and  _481
REMARK  206  A    between atoms: _480  and  _483
REMARK  207  A    between atoms: _483  and  _484
REMARK  208  A    between atoms: _484  and  _485
REMARK  209  A    between atoms: _485  and  _486
REMARK  210  A    between atoms: _495  and  _497
REMARK  211  A    between atoms: _497  and  _498
REMARK  212  A    between atoms: _497  and  _500
REMARK  213  A    between atoms: _500  and  _501
REMARK  214  A    between atoms: _506  and  _507
REMARK  215  A    between atoms: _509  and  _511
REMARK  216  A    between atoms: _511  and  _512
REMARK  217  A    between atoms: _511  and  _514
REMARK  218  A    between atoms: _514  and  _515
REMARK  219  A    between atoms: _520  and  _522
REMARK  220  A    between atoms: _522  and  _523
REMARK  221  A    between atoms: _522  and  _525
REMARK  222  A    between atoms: _525  and  _526
REMARK  223  A    between atoms: _526  and  _527
REMARK  224  A    between atoms: _530  and  _532
REMARK  225  A    between atoms: _532  and  _533
REMARK  226  A    between atoms: _532  and  _535
REMARK  227  A    between atoms: _535  and  _536
REMARK  228  A    between atoms: _539  and  _541
REMARK  229  A    between atoms: _541  and  _542
REMARK  230  A    between atoms: _541  and  _544
REMARK  231  A    between atoms: _544  and  _545
REMARK  232  A    between atoms: _545  and  _546
REMARK  233  A    between atoms: _551  and  _553
REMARK  234  A    between atoms: _553  and  _554
REMARK  235  A    between atoms: _553  and  _556
REMARK  236  A    between atoms: _556  and  _557
REMARK  237  A    between atoms: _560  and  _562
REMARK  238  A    between atoms: _562  and  _563
REMARK  239  A    between atoms: _562  and  _565
REMARK  240  A    between atoms: _565  and  _566
REMARK  241  A    between atoms: _569  and  _571
REMARK  242  A    between atoms: _571  and  _572
REMARK  243  A    between atoms: _571  and  _574
REMARK  244  A    between atoms: _574  and  _575
REMARK  245  A    between atoms: _578  and  _580
REMARK  246  A    between atoms: _580  and  _581
REMARK  247  A    between atoms: _580  and  _583
REMARK  248  A    between atoms: _583  and  _584
REMARK  249  A    between atoms: _587  and  _589
REMARK  250  A    between atoms: _589  and  _590
REMARK  251  A    between atoms: _589  and  _592
REMARK  252  A    between atoms: _592  and  _593
REMARK  253  A    between atoms: _593  and  _594
REMARK  254  A    between atoms: _594  and  _595
REMARK  255  A    between atoms: _604  and  _606
REMARK  256  A    between atoms: _606  and  _607
REMARK  257  A    between atoms: _606  and  _609
REMARK  258  A    between atoms: _609  and  _610
REMARK  259  A    between atoms: _615  and  _616
REMARK  260  A    between atoms: _618  and  _620
REMARK  261  A    between atoms: _620  and  _621
REMARK  262  A    between atoms: _620  and  _623
REMARK  263  A    between atoms: _623  and  _624
REMARK  264  A    between atoms: _627  and  _629
REMARK  265  A    between atoms: _629  and  _630
REMARK  266  A    between atoms: _629  and  _632
REMARK  267  A    between atoms: _634  and  _636
REMARK  268  A    between atoms: _636  and  _637
REMARK  269  A    between atoms: _639  and  _641
REMARK  270  A    between atoms: _641  and  _642
REMARK  271  A    between atoms: _641  and  _644
REMARK  272  A    between atoms: _644  and  _645
REMARK                            x       y       z     vdW  Elec       q    Type
REMARK                         _______ _______ _______ _____ _____    ______ ____
ROOT
ATOM      1  O   HOH     1      58.974  44.269  64.709  0.00  0.00    +0.000 OA
ENDROOT
TORSDOF 0
REMARK  Name = ../refined-set-2016/3juk/3juk_pocket.pdb
REMARK  272 active torsions:
REMARK  status: ('A' for Active; 'I' for Inactive)
REMARK    1  A    between atoms: _1  and  _3
REMARK    2  A    between atoms: _3  and  _4
REMARK    3  A    between atoms: _3  and  _6
REMARK    4  A    between atoms: _6  and  _7
REMARK    5  A    between atoms: _14  and  _15
REMARK    6  A    between atoms: _20  and  _22
REMARK    7  A    between atoms: _22  and  _23
REMARK    8  A    between atoms: _26  and  _28
REMARK    9  A    between atoms: _28  and  _29
REMARK   10  A    between atoms: _32  and  _34
REMARK   11  A    between atoms: _34  and  _35
REMARK   12  A    between atoms: _37  and  _39
REMARK   13  A    between atoms: _39  and  _40
REMARK   14  A    between atoms: _39  and  _42
REMARK   15  A    between atoms: _42  and  _43
REMARK   16  A    between atoms: _48  and  _49
REMARK   17  A    between atoms: _51  and  _53
REMARK   18  A    between atoms: _53  and  _54
REMARK   19  A    between atoms: _56  and  _58
REMARK   20  A    between atoms: _58  and  _59
REMARK   21  A    between atoms: _58  and  _61
REMARK   22  A    between atoms: _61  and  _62
REMARK   23  A    between atoms: _65  and  _67
REMARK   24  A    between atoms: _67  and  _68
REMARK   25  A    between atoms: _67  and  _70
REMARK   26  A    between atoms: _70  and  _71
REMARK   27  A    between atoms: _71  and  _72
REMARK   28  A    between atoms: _72  and  _73
REMARK   29  A    between atoms: _83  and  _84
REMARK   30  A    between atoms: _89  and  _91
REMARK   31  A    between atoms: _91  and  _92
REMARK   32  A    between atoms: _91  and  _94
REMARK   33  A    between atoms: _94  and  _95
REMARK   34  A    between atoms: _95  and  _96
REMARK   35  A    between atoms: _96  and  _97
REMARK   36  A    between atoms: _97  and  _98
REMARK   37  A    between atoms: _102  and  _104
REMARK   38  A    between atoms: _104  and  _105
REMARK   39  A    between atoms: _104  and  _107
REMARK   40  A    between atoms: _107  and  _108
REMARK   41  A    between atoms: _108  and  _109
REMARK   42  A    between atoms: _112  and  _114
REMARK   43  A    between atoms: _114  and  _115
REMARK   44  A    between atoms: _114  and  _117
REMARK   45  A    between atoms: _117  and  _118
REMARK   46  A    between atoms: _121  and  _123
REMARK   47  A    between atoms: _123  and  _124
REMARK   48  A    between atoms: _123  and  _126
REMARK   49  A    between atoms: _129  and  _131
REMARK   50  A    between atoms: _131  and  _132
REMARK   51  A    between atoms: _131  and  _134
REMARK   52  A    between atoms: _134  and  _135
REMARK   53  A    between atoms: _138  and  _140
REMARK   54  A    between atoms: _140  and  _141
REMARK   55  A    between atoms: _143  and  _145
REMARK   56  A    between atoms: _145  and  _146
REMARK   57  A    between atoms: _145  and  _148
REMARK   58  A    between atoms: _148  and  _149
REMARK   59  A    between atoms: _149  and  _150
REMARK   60  A    between atoms: _155  and  _157
REMARK   61  A    between atoms: _157  and  _158
REMARK   62  A    between atoms: _157  and  _160
REMARK   63  A    between atoms: _160  and  _161
REMARK   64  A    between atoms: _161  and  _162
REMARK   65  A    between atoms: _167  and  _169
REMARK   66  A    between atoms: _169  and  _170
REMARK   67  A    between atoms: _169  and  _172
REMARK   68  A    between atoms: _172  and  _173
REMARK   69  A    between atoms: _173  and  _174
REMARK   70  A    between atoms: _176  and  _178
REMARK   71  A    between atoms: _178  and  _179
REMARK   72  A    between atoms: _178  and  _181
REMARK   73  A    between atoms: _181  and  _182
REMARK   74  A    between atoms: _182  and  _183
REMARK   75  A    between atoms: _183  and  _184
REMARK   76  A    between atoms: _184  and  _185
REMARK   77  A    between atoms: _189  and  _191
REMARK   78  A    between atoms: _191  and  _192
REMARK   79  A    between atoms: _194  and  _196
REMARK   80  A    between atoms: _196  and  _197
REMARK   81  A    between atoms: _196  and  _199
REMARK   82  A    between atoms: _199  and  _200
REMARK   83  A    between atoms: _203  and  _205
REMARK   84  A    between atoms: _205  and  _206
REMARK   85  A    between atoms: _208  and  _210
REMARK   86  A    between atoms: _210  and  _211
REMARK   87  A    between atoms: _210  and  _213
REMARK   88  A    between atoms: _213  and  _214
REMARK   89  A    between atoms: _219  and  _221
REMARK   90  A    between atoms: _221  and  _222
REMARK   91  A    between atoms: _225  and  _227
REMARK   92  A    between atoms: _227  and  _228
REMARK   93  A    between atoms: _227  and  _230
REMARK   94  A    between atoms: _230  and  _231
REMARK   95  A    between atoms: _234  and  _236
REMARK   96  A    between atoms: _236  and  _237
REMARK   97  A    between atoms: _236  and  _239
REMARK   98  A    between atoms: _239  and  _240
REMARK   99  A    between atoms: _243  and  _245
REMARK  100  A    between atoms: _245  and  _246
REMARK  101  A    between atoms: _245  and  _248
REMARK  102  A    between atoms: _251  and  _253
REMARK  103  A    between atoms: _253  and  _254
REMARK  104  A    between atoms: _253  and  _256
REMARK  105  A    between atoms: _256  and  _257
REMARK  106  A    between atoms: _260  and  _262
REMARK  107  A    between atoms: _262  and  _263
REMARK  108  A    between atoms: _262  and  _265
REMARK  109  A    between atoms: _265  and  _266
REMARK  110  A    between atoms: _269  and  _271
REMARK  111  A    between atoms: _271  and  _272
REMARK  112  A    between atoms: _275  and  _277
REMARK  113  A    between atoms: _277  and  _278
REMARK  114  A    between atoms: _277  and  _280
REMARK  115  A    between atoms: _280  and  _281
REMARK  116  A    between atoms: _281  and  _282
REMARK  117  A    between atoms: _282  and  MG_647
REMARK  118  A    between atoms: _284  and  _286
REMARK  119  A    between atoms: _286  and  _287
REMARK  120  A    between atoms: _286  and  _289
REMARK  121  A    between atoms: _289  and  _290
REMARK  122  A    between atoms: _293  and  _295
REMARK  123  A    between atoms: _295  and  _296
REMARK  124  A    between atoms: _295  and  _298
REMARK  125  A    between atoms: _298  and  _299
REMARK  126  A    between atoms: _302  and  _304
REMARK  127  A    between atoms: _304  and  _305
REMARK  128  A    between atoms: _304  and  _307
REMARK  129  A    between atoms: _310  and  _312
REMARK  130  A    between atoms: _312  and  _313
REMARK  131  A    between atoms: _316  and  _318
REMARK  132  A    between atoms: _318  and  _319
REMARK  133  A    between atoms: _318  and  _321
REMARK  134  A    between atoms: _321  and  _322
REMARK  135  A    between atoms: _325  and  _327
REMARK  136  A    between atoms: _327  and  _328
REMARK  137  A    between atoms: _327  and  _330
REMARK  138  A    between atoms: _330  and  _331
REMARK  139  A    between atoms: _331  and  _332
REMARK  140  A    between atoms: _335  and  _337
REMARK  141  A    between atoms: _337  and  _338
REMARK  142  A    between atoms: _337  and  _340
REMARK  143  A    between atoms: _340  and  _341
REMARK  144  A    between atoms: _341  and  _342
REMARK  145  A    between atoms: _345  and  _347
REMARK  146  A    between atoms: _347  and  _348
REMARK  147  A    between atoms: _347  and  _350
REMARK  148  A    between atoms: _353  and  _355
REMARK  149  A    between atoms: _355  and  _356
REMARK  150  A    between atoms: _355  and  _358
REMARK  151  A    between atoms: _358  and  _359
REMARK  152  A    between atoms: _361  and  _363
REMARK  153  A    between atoms: _363  and  _364
REMARK  154  A    between atoms: _363  and  _366
REMARK  155  A    between atoms: _366  and  _367
REMARK  156  A    between atoms: _367  and  _368
REMARK  157  A    between atoms: _368  and  _369
REMARK  158  A    between atoms: _369  and  _370
REMARK  159  A    between atoms: _374  and  _376
REMARK  160  A    between atoms: _376  and  _377
REMARK  161  A    between atoms: _376  and  _379
REMARK  162  A    between atoms: _379  and  _380
REMARK  163  A    between atoms: _385  and  _386
REMARK  164  A    between atoms: _388  and  _390
REMARK  165  A    between atoms: _390  and  _391
REMARK  166  A    between atoms: _393  and  _395
REMARK  167  A    between atoms: _395  and  _396
REMARK  168  A    between atoms: _395  and  _398
REMARK  169  A    between atoms: _401  and  _403
REMARK  170  A    between atoms: _403  and  _404
REMARK  171  A    between atoms: _403  and  _406
REMARK  172  A    between atoms: _406  and  _407
REMARK  173  A    between atoms: _407  and  _408
REMARK  174  A    between atoms: _410  and  _412
REMARK  175  A    between atoms: _412  and  _413
REMARK  176  A    between atoms: _412  and  _415
REMARK  177  A    between atoms: _418  and  _420
REMARK  178  A    between atoms: _420  and  _421
REMARK  179  A    between atoms: _420  and  _423
REMARK  180  A    between atoms: _423  and  _424
REMARK  181  A    between atoms: _424  and  _425
REMARK  182  A    between atoms: _428  and  _430
REMARK  183  A    between atoms: _430  and  _431
REMARK  184  A    between atoms: _430  and  _433
REMARK  185  A    between atoms: _433  and  _434
REMARK  186  A    between atoms: _434  and  _435
REMARK  187  A    between atoms: _435  and  _436
REMARK  188  A    between atoms: _436  and  _437
REMARK  189  A    between atoms: _441  and  _443
REMARK  190  A    between atoms: _443  and  _444
REMARK  191  A    between atoms: _443  and  _446
REMARK  192  A    between atoms: _446  and  _447
REMARK  193  A    between atoms: _450  and  _452
REMARK  194  A    between atoms: _452  and  _453
REMARK  195  A    between atoms: _456  and  _458
REMARK  196  A    between atoms: _458  and  _459
REMARK  197  A    between atoms: _458  and  _461
REMARK  198  A    between atoms: _464  and  _466
REMARK  199  A    between atoms: _466  and  _467
REMARK  200  A    between atoms: _466  and  _469
REMARK  201  A    between atoms: _469  and  _470
REMARK  202  A    between atoms: _473  and  _475
REMARK  203  A    between atoms: _475  and  _476
REMARK  204  A    between atoms: _478  and  _480
REMARK  205  A    between atoms: _480  and  _481
REMARK  206  A    between atoms: _480  and  _483
REMARK  207  A    between atoms: _483  and  _484
REMARK  208  A    between atoms: _484  and  _485
REMARK  209  A    between atoms: _485  and  _486
REMARK  210  A    between atoms: _495  and  _497
REMARK  211  A    between atoms: _497  and  _498
REMARK  212  A    between atoms: _497  and  _500
REMARK  213  A    between atoms: _500  and  _501
REMARK  214  A    between atoms: _506  and  _507
REMARK  215  A    between atoms: _509  and  _511
REMARK  216  A    between atoms: _511  and  _512
REMARK  217  A    between atoms: _511  and  _514
REMARK  218  A    between atoms: _514  and  _515
REMARK  219  A    between atoms: _520  and  _522
REMARK  220  A    between atoms: _522  and  _523
REMARK  221  A    between atoms: _522  and  _525
REMARK  222  A    between atoms: _525  and  _526
REMARK  223  A    between atoms: _526  and  _527
REMARK  224  A    between atoms: _530  and  _532
REMARK  225  A    between atoms: _532  and  _533
REMARK  226  A    between atoms: _532  and  _535
REMARK  227  A    between atoms: _535  and  _536
REMARK  228  A    between atoms: _539  and  _541
REMARK  229  A    between atoms: _541  and  _542
REMARK  230  A    between atoms: _541  and  _544
REMARK  231  A    between atoms: _544  and  _545
REMARK  232  A    between atoms: _545  and  _546
REMARK  233  A    between atoms: _551  and  _553
REMARK  234  A    between atoms: _553  and  _554
REMARK  235  A    between atoms: _553  and  _556
REMARK  236  A    between atoms: _556  and  _557
REMARK  237  A    between atoms: _560  and  _562
REMARK  238  A    between atoms: _562  and  _563
REMARK  239  A    between atoms: _562  and  _565
REMARK  240  A    between atoms: _565  and  _566
REMARK  241  A    between atoms: _569  and  _571
REMARK  242  A    between atoms: _571  and  _572
REMARK  243  A    between atoms: _571  and  _574
REMARK  244  A    between atoms: _574  and  _575
REMARK  245  A    between atoms: _578  and  _580
REMARK  246  A    between atoms: _580  and  _581
REMARK  247  A    between atoms: _580  and  _583
REMARK  248  A    between atoms: _583  and  _584
REMARK  249  A    between atoms: _587  and  _589
REMARK  250  A    between atoms: _589  and  _590
REMARK  251  A    between atoms: _589  and  _592
REMARK  252  A    between atoms: _592  and  _593
REMARK  253  A    between atoms: _593  and  _594
REMARK  254  A    between atoms: _594  and  _595
REMARK  255  A    between atoms: _604  and  _606
REMARK  256  A    between atoms: _606  and  _607
REMARK  257  A    between atoms: _606  and  _609
REMARK  258  A    between atoms: _609  and  _610
REMARK  259  A    between atoms: _615  and  _616
REMARK  260  A    between atoms: _618  and  _620
REMARK  261  A    between atoms: _620  and  _621
REMARK  262  A    between atoms: _620  and  _623
REMARK  263  A    between atoms: _623  and  _624
REMARK  264  A    between atoms: _627  and  _629
REMARK  265  A    between atoms: _629  and  _630
REMARK  266  A    between atoms: _629  and  _632
REMARK  267  A    between atoms: _634  and  _636
REMARK  268  A    between atoms: _636  and  _637
REMARK  269  A    between atoms: _639  and  _641
REMARK  270  A    between atoms: _641  and  _642
REMARK  271  A    between atoms: _641  and  _644
REMARK  272  A    between atoms: _644  and  _645
REMARK                            x       y       z     vdW  Elec       q    Type
REMARK                         _______ _______ _______ _____ _____    ______ ____
ROOT
ATOM      1  O   HOH     1      52.695  42.615  57.320  0.00  0.00    +0.000 OA
ENDROOT
TORSDOF 0
REMARK  Name = ../refined-set-2016/3juk/3juk_pocket.pdb
REMARK  272 active torsions:
REMARK  status: ('A' for Active; 'I' for Inactive)
REMARK    1  A    between atoms: _1  and  _3
REMARK    2  A    between atoms: _3  and  _4
REMARK    3  A    between atoms: _3  and  _6
REMARK    4  A    between atoms: _6  and  _7
REMARK    5  A    between atoms: _14  and  _15
REMARK    6  A    between atoms: _20  and  _22
REMARK    7  A    between atoms: _22  and  _23
REMARK    8  A    between atoms: _26  and  _28
REMARK    9  A    between atoms: _28  and  _29
REMARK   10  A    between atoms: _32  and  _34
REMARK   11  A    between atoms: _34  and  _35
REMARK   12  A    between atoms: _37  and  _39
REMARK   13  A    between atoms: _39  and  _40
REMARK   14  A    between atoms: _39  and  _42
REMARK   15  A    between atoms: _42  and  _43
REMARK   16  A    between atoms: _48  and  _49
REMARK   17  A    between atoms: _51  and  _53
REMARK   18  A    between atoms: _53  and  _54
REMARK   19  A    between atoms: _56  and  _58
REMARK   20  A    between atoms: _58  and  _59
REMARK   21  A    between atoms: _58  and  _61
REMARK   22  A    between atoms: _61  and  _62
REMARK   23  A    between atoms: _65  and  _67
REMARK   24  A    between atoms: _67  and  _68
REMARK   25  A    between atoms: _67  and  _70
REMARK   26  A    between atoms: _70  and  _71
REMARK   27  A    between atoms: _71  and  _72
REMARK   28  A    between atoms: _72  and  _73
REMARK   29  A    between atoms: _83  and  _84
REMARK   30  A    between atoms: _89  and  _91
REMARK   31  A    between atoms: _91  and  _92
REMARK   32  A    between atoms: _91  and  _94
REMARK   33  A    between atoms: _94  and  _95
REMARK   34  A    between atoms: _95  and  _96
REMARK   35  A    between atoms: _96  and  _97
REMARK   36  A    between atoms: _97  and  _98
REMARK   37  A    between atoms: _102  and  _104
REMARK   38  A    between atoms: _104  and  _105
REMARK   39  A    between atoms: _104  and  _107
REMARK   40  A    between atoms: _107  and  _108
REMARK   41  A    between atoms: _108  and  _109
REMARK   42  A    between atoms: _112  and  _114
REMARK   43  A    between atoms: _114  and  _115
REMARK   44  A    between atoms: _114  and  _117
REMARK   45  A    between atoms: _117  and  _118
REMARK   46  A    between atoms: _121  and  _123
REMARK   47  A    between atoms: _123  and  _124
REMARK   48  A    between atoms: _123  and  _126
REMARK   49  A    between atoms: _129  and  _131
REMARK   50  A    between atoms: _131  and  _132
REMARK   51  A    between atoms: _131  and  _134
REMARK   52  A    between atoms: _134  and  _135
REMARK   53  A    between atoms: _138  and  _140
REMARK   54  A    between atoms: _140  and  _141
REMARK   55  A    between atoms: _143  and  _145
REMARK   56  A    between atoms: _145  and  _146
REMARK   57  A    between atoms: _145  and  _148
REMARK   58  A    between atoms: _148  and  _149
REMARK   59  A    between atoms: _149  and  _150
REMARK   60  A    between atoms: _155  and  _157
REMARK   61  A    between atoms: _157  and  _158
REMARK   62  A    between atoms: _157  and  _160
REMARK   63  A    between atoms: _160  and  _161
REMARK   64  A    between atoms: _161  and  _162
REMARK   65  A    between atoms: _167  and  _169
REMARK   66  A    between atoms: _169  and  _170
REMARK   67  A    between atoms: _169  and  _172
REMARK   68  A    between atoms: _172  and  _173
REMARK   69  A    between atoms: _173  and  _174
REMARK   70  A    between atoms: _176  and  _178
REMARK   71  A    between atoms: _178  and  _179
REMARK   72  A    between atoms: _178  and  _181
REMARK   73  A    between atoms: _181  and  _182
REMARK   74  A    between atoms: _182  and  _183
REMARK   75  A    between atoms: _183  and  _184
REMARK   76  A    between atoms: _184  and  _185
REMARK   77  A    between atoms: _189  and  _191
REMARK   78  A    between atoms: _191  and  _192
REMARK   79  A    between atoms: _194  and  _196
REMARK   80  A    between atoms: _196  and  _197
REMARK   81  A    between atoms: _196  and  _199
REMARK   82  A    between atoms: _199  and  _200
REMARK   83  A    between atoms: _203  and  _205
REMARK   84  A    between atoms: _205  and  _206
REMARK   85  A    between atoms: _208  and  _210
REMARK   86  A    between atoms: _210  and  _211
REMARK   87  A    between atoms: _210  and  _213
REMARK   88  A    between atoms: _213  and  _214
REMARK   89  A    between atoms: _219  and  _221
REMARK   90  A    between atoms: _221  and  _222
REMARK   91  A    between atoms: _225  and  _227
REMARK   92  A    between atoms: _227  and  _228
REMARK   93  A    between atoms: _227  and  _230
REMARK   94  A    between atoms: _230  and  _231
REMARK   95  A    between atoms: _234  and  _236
REMARK   96  A    between atoms: _236  and  _237
REMARK   97  A    between atoms: _236  and  _239
REMARK   98  A    between atoms: _239  and  _240
REMARK   99  A    between atoms: _243  and  _245
REMARK  100  A    between atoms: _245  and  _246
REMARK  101  A    between atoms: _245  and  _248
REMARK  102  A    between atoms: _251  and  _253
REMARK  103  A    between atoms: _253  and  _254
REMARK  104  A    between atoms: _253  and  _256
REMARK  105  A    between atoms: _256  and  _257
REMARK  106  A    between atoms: _260  and  _262
REMARK  107  A    between atoms: _262  and  _263
REMARK  108  A    between atoms: _262  and  _265
REMARK  109  A    between atoms: _265  and  _266
REMARK  110  A    between atoms: _269  and  _271
REMARK  111  A    between atoms: _271  and  _272
REMARK  112  A    between atoms: _275  and  _277
REMARK  113  A    between atoms: _277  and  _278
REMARK  114  A    between atoms: _277  and  _280
REMARK  115  A    between atoms: _280  and  _281
REMARK  116  A    between atoms: _281  and  _282
REMARK  117  A    between atoms: _282  and  MG_647
REMARK  118  A    between atoms: _284  and  _286
REMARK  119  A    between atoms: _286  and  _287
REMARK  120  A    between atoms: _286  and  _289
REMARK  121  A    between atoms: _289  and  _290
REMARK  122  A    between atoms: _293  and  _295
REMARK  123  A    between atoms: _295  and  _296
REMARK  124  A    between atoms: _295  and  _298
REMARK  125  A    between atoms: _298  and  _299
REMARK  126  A    between atoms: _302  and  _304
REMARK  127  A    between atoms: _304  and  _305
REMARK  128  A    between atoms: _304  and  _307
REMARK  129  A    between atoms: _310  and  _312
REMARK  130  A    between atoms: _312  and  _313
REMARK  131  A    between atoms: _316  and  _318
REMARK  132  A    between atoms: _318  and  _319
REMARK  133  A    between atoms: _318  and  _321
REMARK  134  A    between atoms: _321  and  _322
REMARK  135  A    between atoms: _325  and  _327
REMARK  136  A    between atoms: _327  and  _328
REMARK  137  A    between atoms: _327  and  _330
REMARK  138  A    between atoms: _330  and  _331
REMARK  139  A    between atoms: _331  and  _332
REMARK  140  A    between atoms: _335  and  _337
REMARK  141  A    between atoms: _337  and  _338
REMARK  142  A    between atoms: _337  and  _340
REMARK  143  A    between atoms: _340  and  _341
REMARK  144  A    between atoms: _341  and  _342
REMARK  145  A    between atoms: _345  and  _347
REMARK  146  A    between atoms: _347  and  _348
REMARK  147  A    between atoms: _347  and  _350
REMARK  148  A    between atoms: _353  and  _355
REMARK  149  A    between atoms: _355  and  _356
REMARK  150  A    between atoms: _355  and  _358
REMARK  151  A    between atoms: _358  and  _359
REMARK  152  A    between atoms: _361  and  _363
REMARK  153  A    between atoms: _363  and  _364
REMARK  154  A    between atoms: _363  and  _366
REMARK  155  A    between atoms: _366  and  _367
REMARK  156  A    between atoms: _367  and  _368
REMARK  157  A    between atoms: _368  and  _369
REMARK  158  A    between atoms: _369  and  _370
REMARK  159  A    between atoms: _374  and  _376
REMARK  160  A    between atoms: _376  and  _377
REMARK  161  A    between atoms: _376  and  _379
REMARK  162  A    between atoms: _379  and  _380
REMARK  163  A    between atoms: _385  and  _386
REMARK  164  A    between atoms: _388  and  _390
REMARK  165  A    between atoms: _390  and  _391
REMARK  166  A    between atoms: _393  and  _395
REMARK  167  A    between atoms: _395  and  _396
REMARK  168  A    between atoms: _395  and  _398
REMARK  169  A    between atoms: _401  and  _403
REMARK  170  A    between atoms: _403  and  _404
REMARK  171  A    between atoms: _403  and  _406
REMARK  172  A    between atoms: _406  and  _407
REMARK  173  A    between atoms: _407  and  _408
REMARK  174  A    between atoms: _410  and  _412
REMARK  175  A    between atoms: _412  and  _413
REMARK  176  A    between atoms: _412  and  _415
REMARK  177  A    between atoms: _418  and  _420
REMARK  178  A    between atoms: _420  and  _421
REMARK  179  A    between atoms: _420  and  _423
REMARK  180  A    between atoms: _423  and  _424
REMARK  181  A    between atoms: _424  and  _425
REMARK  182  A    between atoms: _428  and  _430
REMARK  183  A    between atoms: _430  and  _431
REMARK  184  A    between atoms: _430  and  _433
REMARK  185  A    between atoms: _433  and  _434
REMARK  186  A    between atoms: _434  and  _435
REMARK  187  A    between atoms: _435  and  _436
REMARK  188  A    between atoms: _436  and  _437
REMARK  189  A    between atoms: _441  and  _443
REMARK  190  A    between atoms: _443  and  _444
REMARK  191  A    between atoms: _443  and  _446
REMARK  192  A    between atoms: _446  and  _447
REMARK  193  A    between atoms: _450  and  _452
REMARK  194  A    between atoms: _452  and  _453
REMARK  195  A    between atoms: _456  and  _458
REMARK  196  A    between atoms: _458  and  _459
REMARK  197  A    between atoms: _458  and  _461
REMARK  198  A    between atoms: _464  and  _466
REMARK  199  A    between atoms: _466  and  _467
REMARK  200  A    between atoms: _466  and  _469
REMARK  201  A    between atoms: _469  and  _470
REMARK  202  A    between atoms: _473  and  _475
REMARK  203  A    between atoms: _475  and  _476
REMARK  204  A    between atoms: _478  and  _480
REMARK  205  A    between atoms: _480  and  _481
REMARK  206  A    between atoms: _480  and  _483
REMARK  207  A    between atoms: _483  and  _484
REMARK  208  A    between atoms: _484  and  _485
REMARK  209  A    between atoms: _485  and  _486
REMARK  210  A    between atoms: _495  and  _497
REMARK  211  A    between atoms: _497  and  _498
REMARK  212  A    between atoms: _497  and  _500
REMARK  213  A    between atoms: _500  and  _501
REMARK  214  A    between atoms: _506  and  _507
REMARK  215  A    between atoms: _509  and  _511
REMARK  216  A    between atoms: _511  and  _512
REMARK  217  A    between atoms: _511  and  _514
REMARK  218  A    between atoms: _514  and  _515
REMARK  219  A    between atoms: _520  and  _522
REMARK  220  A    between atoms: _522  and  _523
REMARK  221  A    between atoms: _522  and  _525
REMARK  222  A    between atoms: _525  and  _526
REMARK  223  A    between atoms: _526  and  _527
REMARK  224  A    between atoms: _530  and  _532
REMARK  225  A    between atoms: _532  and  _533
REMARK  226  A    between atoms: _532  and  _535
REMARK  227  A    between atoms: _535  and  _536
REMARK  228  A    between atoms: _539  and  _541
REMARK  229  A    between atoms: _541  and  _542
REMARK  230  A    between atoms: _541  and  _544
REMARK  231  A    between atoms: _544  and  _545
REMARK  232  A    between atoms: _545  and  _546
REMARK  233  A    between atoms: _551  and  _553
REMARK  234  A    between atoms: _553  and  _554
REMARK  235  A    between atoms: _553  and  _556
REMARK  236  A    between atoms: _556  and  _557
REMARK  237  A    between atoms: _560  and  _562
REMARK  238  A    between atoms: _562  and  _563
REMARK  239  A    between atoms: _562  and  _565
REMARK  240  A    between atoms: _565  and  _566
REMARK  241  A    between atoms: _569  and  _571
REMARK  242  A    between atoms: _571  and  _572
REMARK  243  A    between atoms: _571  and  _574
REMARK  244  A    between atoms: _574  and  _575
REMARK  245  A    between atoms: _578  and  _580
REMARK  246  A    between atoms: _580  and  _581
REMARK  247  A    between atoms: _580  and  _583
REMARK  248  A    between atoms: _583  and  _584
REMARK  249  A    between atoms: _587  and  _589
REMARK  250  A    between atoms: _589  and  _590
REMARK  251  A    between atoms: _589  and  _592
REMARK  252  A    between atoms: _592  and  _593
REMARK  253  A    between atoms: _593  and  _594
REMARK  254  A    between atoms: _594  and  _595
REMARK  255  A    between atoms: _604  and  _606
REMARK  256  A    between atoms: _606  and  _607
REMARK  257  A    between atoms: _606  and  _609
REMARK  258  A    between atoms: _609  and  _610
REMARK  259  A    between atoms: _615  and  _616
REMARK  260  A    between atoms: _618  and  _620
REMARK  261  A    between atoms: _620  and  _621
REMARK  262  A    between atoms: _620  and  _623
REMARK  263  A    between atoms: _623  and  _624
REMARK  264  A    between atoms: _627  and  _629
REMARK  265  A    between atoms: _629  and  _630
REMARK  266  A    between atoms: _629  and  _632
REMARK  267  A    between atoms: _634  and  _636
REMARK  268  A    between atoms: _636  and  _637
REMARK  269  A    between atoms: _639  and  _641
REMARK  270  A    between atoms: _641  and  _642
REMARK  271  A    between atoms: _641  and  _644
REMARK  272  A    between atoms: _644  and  _645
REMARK                            x       y       z     vdW  Elec       q    Type
REMARK                         _______ _______ _______ _____ _____    ______ ____
ROOT
ATOM      1  O   HOH     1      57.149  50.152  52.702  0.00  0.00    +0.000 OA
ENDROOT
TORSDOF 0
REMARK  Name = ../refined-set-2016/3juk/3juk_pocket.pdb
REMARK  272 active torsions:
REMARK  status: ('A' for Active; 'I' for Inactive)
REMARK    1  A    between atoms: _1  and  _3
REMARK    2  A    between atoms: _3  and  _4
REMARK    3  A    between atoms: _3  and  _6
REMARK    4  A    between atoms: _6  and  _7
REMARK    5  A    between atoms: _14  and  _15
REMARK    6  A    between atoms: _20  and  _22
REMARK    7  A    between atoms: _22  and  _23
REMARK    8  A    between atoms: _26  and  _28
REMARK    9  A    between atoms: _28  and  _29
REMARK   10  A    between atoms: _32  and  _34
REMARK   11  A    between atoms: _34  and  _35
REMARK   12  A    between atoms: _37  and  _39
REMARK   13  A    between atoms: _39  and  _40
REMARK   14  A    between atoms: _39  and  _42
REMARK   15  A    between atoms: _42  and  _43
REMARK   16  A    between atoms: _48  and  _49
REMARK   17  A    between atoms: _51  and  _53
REMARK   18  A    between atoms: _53  and  _54
REMARK   19  A    between atoms: _56  and  _58
REMARK   20  A    between atoms: _58  and  _59
REMARK   21  A    between atoms: _58  and  _61
REMARK   22  A    between atoms: _61  and  _62
REMARK   23  A    between atoms: _65  and  _67
REMARK   24  A    between atoms: _67  and  _68
REMARK   25  A    between atoms: _67  and  _70
REMARK   26  A    between atoms: _70  and  _71
REMARK   27  A    between atoms: _71  and  _72
REMARK   28  A    between atoms: _72  and  _73
REMARK   29  A    between atoms: _83  and  _84
REMARK   30  A    between atoms: _89  and  _91
REMARK   31  A    between atoms: _91  and  _92
REMARK   32  A    between atoms: _91  and  _94
REMARK   33  A    between atoms: _94  and  _95
REMARK   34  A    between atoms: _95  and  _96
REMARK   35  A    between atoms: _96  and  _97
REMARK   36  A    between atoms: _97  and  _98
REMARK   37  A    between atoms: _102  and  _104
REMARK   38  A    between atoms: _104  and  _105
REMARK   39  A    between atoms: _104  and  _107
REMARK   40  A    between atoms: _107  and  _108
REMARK   41  A    between atoms: _108  and  _109
REMARK   42  A    between atoms: _112  and  _114
REMARK   43  A    between atoms: _114  and  _115
REMARK   44  A    between atoms: _114  and  _117
REMARK   45  A    between atoms: _117  and  _118
REMARK   46  A    between atoms: _121  and  _123
REMARK   47  A    between atoms: _123  and  _124
REMARK   48  A    between atoms: _123  and  _126
REMARK   49  A    between atoms: _129  and  _131
REMARK   50  A    between atoms: _131  and  _132
REMARK   51  A    between atoms: _131  and  _134
REMARK   52  A    between atoms: _134  and  _135
REMARK   53  A    between atoms: _138  and  _140
REMARK   54  A    between atoms: _140  and  _141
REMARK   55  A    between atoms: _143  and  _145
REMARK   56  A    between atoms: _145  and  _146
REMARK   57  A    between atoms: _145  and  _148
REMARK   58  A    between atoms: _148  and  _149
REMARK   59  A    between atoms: _149  and  _150
REMARK   60  A    between atoms: _155  and  _157
REMARK   61  A    between atoms: _157  and  _158
REMARK   62  A    between atoms: _157  and  _160
REMARK   63  A    between atoms: _160  and  _161
REMARK   64  A    between atoms: _161  and  _162
REMARK   65  A    between atoms: _167  and  _169
REMARK   66  A    between atoms: _169  and  _170
REMARK   67  A    between atoms: _169  and  _172
REMARK   68  A    between atoms: _172  and  _173
REMARK   69  A    between atoms: _173  and  _174
REMARK   70  A    between atoms: _176  and  _178
REMARK   71  A    between atoms: _178  and  _179
REMARK   72  A    between atoms: _178  and  _181
REMARK   73  A    between atoms: _181  and  _182
REMARK   74  A    between atoms: _182  and  _183
REMARK   75  A    between atoms: _183  and  _184
REMARK   76  A    between atoms: _184  and  _185
REMARK   77  A    between atoms: _189  and  _191
REMARK   78  A    between atoms: _191  and  _192
REMARK   79  A    between atoms: _194  and  _196
REMARK   80  A    between atoms: _196  and  _197
REMARK   81  A    between atoms: _196  and  _199
REMARK   82  A    between atoms: _199  and  _200
REMARK   83  A    between atoms: _203  and  _205
REMARK   84  A    between atoms: _205  and  _206
REMARK   85  A    between atoms: _208  and  _210
REMARK   86  A    between atoms: _210  and  _211
REMARK   87  A    between atoms: _210  and  _213
REMARK   88  A    between atoms: _213  and  _214
REMARK   89  A    between atoms: _219  and  _221
REMARK   90  A    between atoms: _221  and  _222
REMARK   91  A    between atoms: _225  and  _227
REMARK   92  A    between atoms: _227  and  _228
REMARK   93  A    between atoms: _227  and  _230
REMARK   94  A    between atoms: _230  and  _231
REMARK   95  A    between atoms: _234  and  _236
REMARK   96  A    between atoms: _236  and  _237
REMARK   97  A    between atoms: _236  and  _239
REMARK   98  A    between atoms: _239  and  _240
REMARK   99  A    between atoms: _243  and  _245
REMARK  100  A    between atoms: _245  and  _246
REMARK  101  A    between atoms: _245  and  _248
REMARK  102  A    between atoms: _251  and  _253
REMARK  103  A    between atoms: _253  and  _254
REMARK  104  A    between atoms: _253  and  _256
REMARK  105  A    between atoms: _256  and  _257
REMARK  106  A    between atoms: _260  and  _262
REMARK  107  A    between atoms: _262  and  _263
REMARK  108  A    between atoms: _262  and  _265
REMARK  109  A    between atoms: _265  and  _266
REMARK  110  A    between atoms: _269  and  _271
REMARK  111  A    between atoms: _271  and  _272
REMARK  112  A    between atoms: _275  and  _277
REMARK  113  A    between atoms: _277  and  _278
REMARK  114  A    between atoms: _277  and  _280
REMARK  115  A    between atoms: _280  and  _281
REMARK  116  A    between atoms: _281  and  _282
REMARK  117  A    between atoms: _282  and  MG_647
REMARK  118  A    between atoms: _284  and  _286
REMARK  119  A    between atoms: _286  and  _287
REMARK  120  A    between atoms: _286  and  _289
REMARK  121  A    between atoms: _289  and  _290
REMARK  122  A    between atoms: _293  and  _295
REMARK  123  A    between atoms: _295  and  _296
REMARK  124  A    between atoms: _295  and  _298
REMARK  125  A    between atoms: _298  and  _299
REMARK  126  A    between atoms: _302  and  _304
REMARK  127  A    between atoms: _304  and  _305
REMARK  128  A    between atoms: _304  and  _307
REMARK  129  A    between atoms: _310  and  _312
REMARK  130  A    between atoms: _312  and  _313
REMARK  131  A    between atoms: _316  and  _318
REMARK  132  A    between atoms: _318  and  _319
REMARK  133  A    between atoms: _318  and  _321
REMARK  134  A    between atoms: _321  and  _322
REMARK  135  A    between atoms: _325  and  _327
REMARK  136  A    between atoms: _327  and  _328
REMARK  137  A    between atoms: _327  and  _330
REMARK  138  A    between atoms: _330  and  _331
REMARK  139  A    between atoms: _331  and  _332
REMARK  140  A    between atoms: _335  and  _337
REMARK  141  A    between atoms: _337  and  _338
REMARK  142  A    between atoms: _337  and  _340
REMARK  143  A    between atoms: _340  and  _341
REMARK  144  A    between atoms: _341  and  _342
REMARK  145  A    between atoms: _345  and  _347
REMARK  146  A    between atoms: _347  and  _348
REMARK  147  A    between atoms: _347  and  _350
REMARK  148  A    between atoms: _353  and  _355
REMARK  149  A    between atoms: _355  and  _356
REMARK  150  A    between atoms: _355  and  _358
REMARK  151  A    between atoms: _358  and  _359
REMARK  152  A    between atoms: _361  and  _363
REMARK  153  A    between atoms: _363  and  _364
REMARK  154  A    between atoms: _363  and  _366
REMARK  155  A    between atoms: _366  and  _367
REMARK  156  A    between atoms: _367  and  _368
REMARK  157  A    between atoms: _368  and  _369
REMARK  158  A    between atoms: _369  and  _370
REMARK  159  A    between atoms: _374  and  _376
REMARK  160  A    between atoms: _376  and  _377
REMARK  161  A    between atoms: _376  and  _379
REMARK  162  A    between atoms: _379  and  _380
REMARK  163  A    between atoms: _385  and  _386
REMARK  164  A    between atoms: _388  and  _390
REMARK  165  A    between atoms: _390  and  _391
REMARK  166  A    between atoms: _393  and  _395
REMARK  167  A    between atoms: _395  and  _396
REMARK  168  A    between atoms: _395  and  _398
REMARK  169  A    between atoms: _401  and  _403
REMARK  170  A    between atoms: _403  and  _404
REMARK  171  A    between atoms: _403  and  _406
REMARK  172  A    between atoms: _406  and  _407
REMARK  173  A    between atoms: _407  and  _408
REMARK  174  A    between atoms: _410  and  _412
REMARK  175  A    between atoms: _412  and  _413
REMARK  176  A    between atoms: _412  and  _415
REMARK  177  A    between atoms: _418  and  _420
REMARK  178  A    between atoms: _420  and  _421
REMARK  179  A    between atoms: _420  and  _423
REMARK  180  A    between atoms: _423  and  _424
REMARK  181  A    between atoms: _424  and  _425
REMARK  182  A    between atoms: _428  and  _430
REMARK  183  A    between atoms: _430  and  _431
REMARK  184  A    between atoms: _430  and  _433
REMARK  185  A    between atoms: _433  and  _434
REMARK  186  A    between atoms: _434  and  _435
REMARK  187  A    between atoms: _435  and  _436
REMARK  188  A    between atoms: _436  and  _437
REMARK  189  A    between atoms: _441  and  _443
REMARK  190  A    between atoms: _443  and  _444
REMARK  191  A    between atoms: _443  and  _446
REMARK  192  A    between atoms: _446  and  _447
REMARK  193  A    between atoms: _450  and  _452
REMARK  194  A    between atoms: _452  and  _453
REMARK  195  A    between atoms: _456  and  _458
REMARK  196  A    between atoms: _458  and  _459
REMARK  197  A    between atoms: _458  and  _461
REMARK  198  A    between atoms: _464  and  _466
REMARK  199  A    between atoms: _466  and  _467
REMARK  200  A    between atoms: _466  and  _469
REMARK  201  A    between atoms: _469  and  _470
REMARK  202  A    between atoms: _473  and  _475
REMARK  203  A    between atoms: _475  and  _476
REMARK  204  A    between atoms: _478  and  _480
REMARK  205  A    between atoms: _480  and  _481
REMARK  206  A    between atoms: _480  and  _483
REMARK  207  A    between atoms: _483  and  _484
REMARK  208  A    between atoms: _484  and  _485
REMARK  209  A    between atoms: _485  and  _486
REMARK  210  A    between atoms: _495  and  _497
REMARK  211  A    between atoms: _497  and  _498
REMARK  212  A    between atoms: _497  and  _500
REMARK  213  A    between atoms: _500  and  _501
REMARK  214  A    between atoms: _506  and  _507
REMARK  215  A    between atoms: _509  and  _511
REMARK  216  A    between atoms: _511  and  _512
REMARK  217  A    between atoms: _511  and  _514
REMARK  218  A    between atoms: _514  and  _515
REMARK  219  A    between atoms: _520  and  _522
REMARK  220  A    between atoms: _522  and  _523
REMARK  221  A    between atoms: _522  and  _525
REMARK  222  A    between atoms: _525  and  _526
REMARK  223  A    between atoms: _526  and  _527
REMARK  224  A    between atoms: _530  and  _532
REMARK  225  A    between atoms: _532  and  _533
REMARK  226  A    between atoms: _532  and  _535
REMARK  227  A    between atoms: _535  and  _536
REMARK  228  A    between atoms: _539  and  _541
REMARK  229  A    between atoms: _541  and  _542
REMARK  230  A    between atoms: _541  and  _544
REMARK  231  A    between atoms: _544  and  _545
REMARK  232  A    between atoms: _545  and  _546
REMARK  233  A    between atoms: _551  and  _553
REMARK  234  A    between atoms: _553  and  _554
REMARK  235  A    between atoms: _553  and  _556
REMARK  236  A    between atoms: _556  and  _557
REMARK  237  A    between atoms: _560  and  _562
REMARK  238  A    between atoms: _562  and  _563
REMARK  239  A    between atoms: _562  and  _565
REMARK  240  A    between atoms: _565  and  _566
REMARK  241  A    between atoms: _569  and  _571
REMARK  242  A    between atoms: _571  and  _572
REMARK  243  A    between atoms: _571  and  _574
REMARK  244  A    between atoms: _574  and  _575
REMARK  245  A    between atoms: _578  and  _580
REMARK  246  A    between atoms: _580  and  _581
REMARK  247  A    between atoms: _580  and  _583
REMARK  248  A    between atoms: _583  and  _584
REMARK  249  A    between atoms: _587  and  _589
REMARK  250  A    between atoms: _589  and  _590
REMARK  251  A    between atoms: _589  and  _592
REMARK  252  A    between atoms: _592  and  _593
REMARK  253  A    between atoms: _593  and  _594
REMARK  254  A    between atoms: _594  and  _595
REMARK  255  A    between atoms: _604  and  _606
REMARK  256  A    between atoms: _606  and  _607
REMARK  257  A    between atoms: _606  and  _609
REMARK  258  A    between atoms: _609  and  _610
REMARK  259  A    between atoms: _615  and  _616
REMARK  260  A    between atoms: _618  and  _620
REMARK  261  A    between atoms: _620  and  _621
REMARK  262  A    between atoms: _620  and  _623
REMARK  263  A    between atoms: _623  and  _624
REMARK  264  A    between atoms: _627  and  _629
REMARK  265  A    between atoms: _629  and  _630
REMARK  266  A    between atoms: _629  and  _632
REMARK  267  A    between atoms: _634  and  _636
REMARK  268  A    between atoms: _636  and  _637
REMARK  269  A    between atoms: _639  and  _641
REMARK  270  A    between atoms: _641  and  _642
REMARK  271  A    between atoms: _641  and  _644
REMARK  272  A    between atoms: _644  and  _645
REMARK                            x       y       z     vdW  Elec       q    Type
REMARK                         _______ _______ _______ _____ _____    ______ ____
ROOT
ATOM      1  O   HOH     1      55.471  39.477  58.671  0.00  0.00    +0.000 OA
ENDROOT
TORSDOF 0
REMARK  Name = ../refined-set-2016/3juk/3juk_pocket.pdb
REMARK  272 active torsions:
REMARK  status: ('A' for Active; 'I' for Inactive)
REMARK    1  A    between atoms: _1  and  _3
REMARK    2  A    between atoms: _3  and  _4
REMARK    3  A    between atoms: _3  and  _6
REMARK    4  A    between atoms: _6  and  _7
REMARK    5  A    between atoms: _14  and  _15
REMARK    6  A    between atoms: _20  and  _22
REMARK    7  A    between atoms: _22  and  _23
REMARK    8  A    between atoms: _26  and  _28
REMARK    9  A    between atoms: _28  and  _29
REMARK   10  A    between atoms: _32  and  _34
REMARK   11  A    between atoms: _34  and  _35
REMARK   12  A    between atoms: _37  and  _39
REMARK   13  A    between atoms: _39  and  _40
REMARK   14  A    between atoms: _39  and  _42
REMARK   15  A    between atoms: _42  and  _43
REMARK   16  A    between atoms: _48  and  _49
REMARK   17  A    between atoms: _51  and  _53
REMARK   18  A    between atoms: _53  and  _54
REMARK   19  A    between atoms: _56  and  _58
REMARK   20  A    between atoms: _58  and  _59
REMARK   21  A    between atoms: _58  and  _61
REMARK   22  A    between atoms: _61  and  _62
REMARK   23  A    between atoms: _65  and  _67
REMARK   24  A    between atoms: _67  and  _68
REMARK   25  A    between atoms: _67  and  _70
REMARK   26  A    between atoms: _70  and  _71
REMARK   27  A    between atoms: _71  and  _72
REMARK   28  A    between atoms: _72  and  _73
REMARK   29  A    between atoms: _83  and  _84
REMARK   30  A    between atoms: _89  and  _91
REMARK   31  A    between atoms: _91  and  _92
REMARK   32  A    between atoms: _91  and  _94
REMARK   33  A    between atoms: _94  and  _95
REMARK   34  A    between atoms: _95  and  _96
REMARK   35  A    between atoms: _96  and  _97
REMARK   36  A    between atoms: _97  and  _98
REMARK   37  A    between atoms: _102  and  _104
REMARK   38  A    between atoms: _104  and  _105
REMARK   39  A    between atoms: _104  and  _107
REMARK   40  A    between atoms: _107  and  _108
REMARK   41  A    between atoms: _108  and  _109
REMARK   42  A    between atoms: _112  and  _114
REMARK   43  A    between atoms: _114  and  _115
REMARK   44  A    between atoms: _114  and  _117
REMARK   45  A    between atoms: _117  and  _118
REMARK   46  A    between atoms: _121  and  _123
REMARK   47  A    between atoms: _123  and  _124
REMARK   48  A    between atoms: _123  and  _126
REMARK   49  A    between atoms: _129  and  _131
REMARK   50  A    between atoms: _131  and  _132
REMARK   51  A    between atoms: _131  and  _134
REMARK   52  A    between atoms: _134  and  _135
REMARK   53  A    between atoms: _138  and  _140
REMARK   54  A    between atoms: _140  and  _141
REMARK   55  A    between atoms: _143  and  _145
REMARK   56  A    between atoms: _145  and  _146
REMARK   57  A    between atoms: _145  and  _148
REMARK   58  A    between atoms: _148  and  _149
REMARK   59  A    between atoms: _149  and  _150
REMARK   60  A    between atoms: _155  and  _157
REMARK   61  A    between atoms: _157  and  _158
REMARK   62  A    between atoms: _157  and  _160
REMARK   63  A    between atoms: _160  and  _161
REMARK   64  A    between atoms: _161  and  _162
REMARK   65  A    between atoms: _167  and  _169
REMARK   66  A    between atoms: _169  and  _170
REMARK   67  A    between atoms: _169  and  _172
REMARK   68  A    between atoms: _172  and  _173
REMARK   69  A    between atoms: _173  and  _174
REMARK   70  A    between atoms: _176  and  _178
REMARK   71  A    between atoms: _178  and  _179
REMARK   72  A    between atoms: _178  and  _181
REMARK   73  A    between atoms: _181  and  _182
REMARK   74  A    between atoms: _182  and  _183
REMARK   75  A    between atoms: _183  and  _184
REMARK   76  A    between atoms: _184  and  _185
REMARK   77  A    between atoms: _189  and  _191
REMARK   78  A    between atoms: _191  and  _192
REMARK   79  A    between atoms: _194  and  _196
REMARK   80  A    between atoms: _196  and  _197
REMARK   81  A    between atoms: _196  and  _199
REMARK   82  A    between atoms: _199  and  _200
REMARK   83  A    between atoms: _203  and  _205
REMARK   84  A    between atoms: _205  and  _206
REMARK   85  A    between atoms: _208  and  _210
REMARK   86  A    between atoms: _210  and  _211
REMARK   87  A    between atoms: _210  and  _213
REMARK   88  A    between atoms: _213  and  _214
REMARK   89  A    between atoms: _219  and  _221
REMARK   90  A    between atoms: _221  and  _222
REMARK   91  A    between atoms: _225  and  _227
REMARK   92  A    between atoms: _227  and  _228
REMARK   93  A    between atoms: _227  and  _230
REMARK   94  A    between atoms: _230  and  _231
REMARK   95  A    between atoms: _234  and  _236
REMARK   96  A    between atoms: _236  and  _237
REMARK   97  A    between atoms: _236  and  _239
REMARK   98  A    between atoms: _239  and  _240
REMARK   99  A    between atoms: _243  and  _245
REMARK  100  A    between atoms: _245  and  _246
REMARK  101  A    between atoms: _245  and  _248
REMARK  102  A    between atoms: _251  and  _253
REMARK  103  A    between atoms: _253  and  _254
REMARK  104  A    between atoms: _253  and  _256
REMARK  105  A    between atoms: _256  and  _257
REMARK  106  A    between atoms: _260  and  _262
REMARK  107  A    between atoms: _262  and  _263
REMARK  108  A    between atoms: _262  and  _265
REMARK  109  A    between atoms: _265  and  _266
REMARK  110  A    between atoms: _269  and  _271
REMARK  111  A    between atoms: _271  and  _272
REMARK  112  A    between atoms: _275  and  _277
REMARK  113  A    between atoms: _277  and  _278
REMARK  114  A    between atoms: _277  and  _280
REMARK  115  A    between atoms: _280  and  _281
REMARK  116  A    between atoms: _281  and  _282
REMARK  117  A    between atoms: _282  and  MG_647
REMARK  118  A    between atoms: _284  and  _286
REMARK  119  A    between atoms: _286  and  _287
REMARK  120  A    between atoms: _286  and  _289
REMARK  121  A    between atoms: _289  and  _290
REMARK  122  A    between atoms: _293  and  _295
REMARK  123  A    between atoms: _295  and  _296
REMARK  124  A    between atoms: _295  and  _298
REMARK  125  A    between atoms: _298  and  _299
REMARK  126  A    between atoms: _302  and  _304
REMARK  127  A    between atoms: _304  and  _305
REMARK  128  A    between atoms: _304  and  _307
REMARK  129  A    between atoms: _310  and  _312
REMARK  130  A    between atoms: _312  and  _313
REMARK  131  A    between atoms: _316  and  _318
REMARK  132  A    between atoms: _318  and  _319
REMARK  133  A    between atoms: _318  and  _321
REMARK  134  A    between atoms: _321  and  _322
REMARK  135  A    between atoms: _325  and  _327
REMARK  136  A    between atoms: _327  and  _328
REMARK  137  A    between atoms: _327  and  _330
REMARK  138  A    between atoms: _330  and  _331
REMARK  139  A    between atoms: _331  and  _332
REMARK  140  A    between atoms: _335  and  _337
REMARK  141  A    between atoms: _337  and  _338
REMARK  142  A    between atoms: _337  and  _340
REMARK  143  A    between atoms: _340  and  _341
REMARK  144  A    between atoms: _341  and  _342
REMARK  145  A    between atoms: _345  and  _347
REMARK  146  A    between atoms: _347  and  _348
REMARK  147  A    between atoms: _347  and  _350
REMARK  148  A    between atoms: _353  and  _355
REMARK  149  A    between atoms: _355  and  _356
REMARK  150  A    between atoms: _355  and  _358
REMARK  151  A    between atoms: _358  and  _359
REMARK  152  A    between atoms: _361  and  _363
REMARK  153  A    between atoms: _363  and  _364
REMARK  154  A    between atoms: _363  and  _366
REMARK  155  A    between atoms: _366  and  _367
REMARK  156  A    between atoms: _367  and  _368
REMARK  157  A    between atoms: _368  and  _369
REMARK  158  A    between atoms: _369  and  _370
REMARK  159  A    between atoms: _374  and  _376
REMARK  160  A    between atoms: _376  and  _377
REMARK  161  A    between atoms: _376  and  _379
REMARK  162  A    between atoms: _379  and  _380
REMARK  163  A    between atoms: _385  and  _386
REMARK  164  A    between atoms: _388  and  _390
REMARK  165  A    between atoms: _390  and  _391
REMARK  166  A    between atoms: _393  and  _395
REMARK  167  A    between atoms: _395  and  _396
REMARK  168  A    between atoms: _395  and  _398
REMARK  169  A    between atoms: _401  and  _403
REMARK  170  A    between atoms: _403  and  _404
REMARK  171  A    between atoms: _403  and  _406
REMARK  172  A    between atoms: _406  and  _407
REMARK  173  A    between atoms: _407  and  _408
REMARK  174  A    between atoms: _410  and  _412
REMARK  175  A    between atoms: _412  and  _413
REMARK  176  A    between atoms: _412  and  _415
REMARK  177  A    between atoms: _418  and  _420
REMARK  178  A    between atoms: _420  and  _421
REMARK  179  A    between atoms: _420  and  _423
REMARK  180  A    between atoms: _423  and  _424
REMARK  181  A    between atoms: _424  and  _425
REMARK  182  A    between atoms: _428  and  _430
REMARK  183  A    between atoms: _430  and  _431
REMARK  184  A    between atoms: _430  and  _433
REMARK  185  A    between atoms: _433  and  _434
REMARK  186  A    between atoms: _434  and  _435
REMARK  187  A    between atoms: _435  and  _436
REMARK  188  A    between atoms: _436  and  _437
REMARK  189  A    between atoms: _441  and  _443
REMARK  190  A    between atoms: _443  and  _444
REMARK  191  A    between atoms: _443  and  _446
REMARK  192  A    between atoms: _446  and  _447
REMARK  193  A    between atoms: _450  and  _452
REMARK  194  A    between atoms: _452  and  _453
REMARK  195  A    between atoms: _456  and  _458
REMARK  196  A    between atoms: _458  and  _459
REMARK  197  A    between atoms: _458  and  _461
REMARK  198  A    between atoms: _464  and  _466
REMARK  199  A    between atoms: _466  and  _467
REMARK  200  A    between atoms: _466  and  _469
REMARK  201  A    between atoms: _469  and  _470
REMARK  202  A    between atoms: _473  and  _475
REMARK  203  A    between atoms: _475  and  _476
REMARK  204  A    between atoms: _478  and  _480
REMARK  205  A    between atoms: _480  and  _481
REMARK  206  A    between atoms: _480  and  _483
REMARK  207  A    between atoms: _483  and  _484
REMARK  208  A    between atoms: _484  and  _485
REMARK  209  A    between atoms: _485  and  _486
REMARK  210  A    between atoms: _495  and  _497
REMARK  211  A    between atoms: _497  and  _498
REMARK  212  A    between atoms: _497  and  _500
REMARK  213  A    between atoms: _500  and  _501
REMARK  214  A    between atoms: _506  and  _507
REMARK  215  A    between atoms: _509  and  _511
REMARK  216  A    between atoms: _511  and  _512
REMARK  217  A    between atoms: _511  and  _514
REMARK  218  A    between atoms: _514  and  _515
REMARK  219  A    between atoms: _520  and  _522
REMARK  220  A    between atoms: _522  and  _523
REMARK  221  A    between atoms: _522  and  _525
REMARK  222  A    between atoms: _525  and  _526
REMARK  223  A    between atoms: _526  and  _527
REMARK  224  A    between atoms: _530  and  _532
REMARK  225  A    between atoms: _532  and  _533
REMARK  226  A    between atoms: _532  and  _535
REMARK  227  A    between atoms: _535  and  _536
REMARK  228  A    between atoms: _539  and  _541
REMARK  229  A    between atoms: _541  and  _542
REMARK  230  A    between atoms: _541  and  _544
REMARK  231  A    between atoms: _544  and  _545
REMARK  232  A    between atoms: _545  and  _546
REMARK  233  A    between atoms: _551  and  _553
REMARK  234  A    between atoms: _553  and  _554
REMARK  235  A    between atoms: _553  and  _556
REMARK  236  A    between atoms: _556  and  _557
REMARK  237  A    between atoms: _560  and  _562
REMARK  238  A    between atoms: _562  and  _563
REMARK  239  A    between atoms: _562  and  _565
REMARK  240  A    between atoms: _565  and  _566
REMARK  241  A    between atoms: _569  and  _571
REMARK  242  A    between atoms: _571  and  _572
REMARK  243  A    between atoms: _571  and  _574
REMARK  244  A    between atoms: _574  and  _575
REMARK  245  A    between atoms: _578  and  _580
REMARK  246  A    between atoms: _580  and  _581
REMARK  247  A    between atoms: _580  and  _583
REMARK  248  A    between atoms: _583  and  _584
REMARK  249  A    between atoms: _587  and  _589
REMARK  250  A    between atoms: _589  and  _590
REMARK  251  A    between atoms: _589  and  _592
REMARK  252  A    between atoms: _592  and  _593
REMARK  253  A    between atoms: _593  and  _594
REMARK  254  A    between atoms: _594  and  _595
REMARK  255  A    between atoms: _604  and  _606
REMARK  256  A    between atoms: _606  and  _607
REMARK  257  A    between atoms: _606  and  _609
REMARK  258  A    between atoms: _609  and  _610
REMARK  259  A    between atoms: _615  and  _616
REMARK  260  A    between atoms: _618  and  _620
REMARK  261  A    between atoms: _620  and  _621
REMARK  262  A    between atoms: _620  and  _623
REMARK  263  A    between atoms: _623  and  _624
REMARK  264  A    between atoms: _627  and  _629
REMARK  265  A    between atoms: _629  and  _630
REMARK  266  A    between atoms: _629  and  _632
REMARK  267  A    between atoms: _634  and  _636
REMARK  268  A    between atoms: _636  and  _637
REMARK  269  A    between atoms: _639  and  _641
REMARK  270  A    between atoms: _641  and  _642
REMARK  271  A    between atoms: _641  and  _644
REMARK  272  A    between atoms: _644  and  _645
REMARK                            x       y       z     vdW  Elec       q    Type
REMARK                         _______ _______ _______ _____ _____    ______ ____
ROOT
ATOM      1  O   HOH     1      57.536  39.509  53.202  0.00  0.00    +0.000 OA
ENDROOT
TORSDOF 0
REMARK  Name = ../refined-set-2016/3juk/3juk_pocket.pdb
REMARK  272 active torsions:
REMARK  status: ('A' for Active; 'I' for Inactive)
REMARK    1  A    between atoms: _1  and  _3
REMARK    2  A    between atoms: _3  and  _4
REMARK    3  A    between atoms: _3  and  _6
REMARK    4  A    between atoms: _6  and  _7
REMARK    5  A    between atoms: _14  and  _15
REMARK    6  A    between atoms: _20  and  _22
REMARK    7  A    between atoms: _22  and  _23
REMARK    8  A    between atoms: _26  and  _28
REMARK    9  A    between atoms: _28  and  _29
REMARK   10  A    between atoms: _32  and  _34
REMARK   11  A    between atoms: _34  and  _35
REMARK   12  A    between atoms: _37  and  _39
REMARK   13  A    between atoms: _39  and  _40
REMARK   14  A    between atoms: _39  and  _42
REMARK   15  A    between atoms: _42  and  _43
REMARK   16  A    between atoms: _48  and  _49
REMARK   17  A    between atoms: _51  and  _53
REMARK   18  A    between atoms: _53  and  _54
REMARK   19  A    between atoms: _56  and  _58
REMARK   20  A    between atoms: _58  and  _59
REMARK   21  A    between atoms: _58  and  _61
REMARK   22  A    between atoms: _61  and  _62
REMARK   23  A    between atoms: _65  and  _67
REMARK   24  A    between atoms: _67  and  _68
REMARK   25  A    between atoms: _67  and  _70
REMARK   26  A    between atoms: _70  and  _71
REMARK   27  A    between atoms: _71  and  _72
REMARK   28  A    between atoms: _72  and  _73
REMARK   29  A    between atoms: _83  and  _84
REMARK   30  A    between atoms: _89  and  _91
REMARK   31  A    between atoms: _91  and  _92
REMARK   32  A    between atoms: _91  and  _94
REMARK   33  A    between atoms: _94  and  _95
REMARK   34  A    between atoms: _95  and  _96
REMARK   35  A    between atoms: _96  and  _97
REMARK   36  A    between atoms: _97  and  _98
REMARK   37  A    between atoms: _102  and  _104
REMARK   38  A    between atoms: _104  and  _105
REMARK   39  A    between atoms: _104  and  _107
REMARK   40  A    between atoms: _107  and  _108
REMARK   41  A    between atoms: _108  and  _109
REMARK   42  A    between atoms: _112  and  _114
REMARK   43  A    between atoms: _114  and  _115
REMARK   44  A    between atoms: _114  and  _117
REMARK   45  A    between atoms: _117  and  _118
REMARK   46  A    between atoms: _121  and  _123
REMARK   47  A    between atoms: _123  and  _124
REMARK   48  A    between atoms: _123  and  _126
REMARK   49  A    between atoms: _129  and  _131
REMARK   50  A    between atoms: _131  and  _132
REMARK   51  A    between atoms: _131  and  _134
REMARK   52  A    between atoms: _134  and  _135
REMARK   53  A    between atoms: _138  and  _140
REMARK   54  A    between atoms: _140  and  _141
REMARK   55  A    between atoms: _143  and  _145
REMARK   56  A    between atoms: _145  and  _146
REMARK   57  A    between atoms: _145  and  _148
REMARK   58  A    between atoms: _148  and  _149
REMARK   59  A    between atoms: _149  and  _150
REMARK   60  A    between atoms: _155  and  _157
REMARK   61  A    between atoms: _157  and  _158
REMARK   62  A    between atoms: _157  and  _160
REMARK   63  A    between atoms: _160  and  _161
REMARK   64  A    between atoms: _161  and  _162
REMARK   65  A    between atoms: _167  and  _169
REMARK   66  A    between atoms: _169  and  _170
REMARK   67  A    between atoms: _169  and  _172
REMARK   68  A    between atoms: _172  and  _173
REMARK   69  A    between atoms: _173  and  _174
REMARK   70  A    between atoms: _176  and  _178
REMARK   71  A    between atoms: _178  and  _179
REMARK   72  A    between atoms: _178  and  _181
REMARK   73  A    between atoms: _181  and  _182
REMARK   74  A    between atoms: _182  and  _183
REMARK   75  A    between atoms: _183  and  _184
REMARK   76  A    between atoms: _184  and  _185
REMARK   77  A    between atoms: _189  and  _191
REMARK   78  A    between atoms: _191  and  _192
REMARK   79  A    between atoms: _194  and  _196
REMARK   80  A    between atoms: _196  and  _197
REMARK   81  A    between atoms: _196  and  _199
REMARK   82  A    between atoms: _199  and  _200
REMARK   83  A    between atoms: _203  and  _205
REMARK   84  A    between atoms: _205  and  _206
REMARK   85  A    between atoms: _208  and  _210
REMARK   86  A    between atoms: _210  and  _211
REMARK   87  A    between atoms: _210  and  _213
REMARK   88  A    between atoms: _213  and  _214
REMARK   89  A    between atoms: _219  and  _221
REMARK   90  A    between atoms: _221  and  _222
REMARK   91  A    between atoms: _225  and  _227
REMARK   92  A    between atoms: _227  and  _228
REMARK   93  A    between atoms: _227  and  _230
REMARK   94  A    between atoms: _230  and  _231
REMARK   95  A    between atoms: _234  and  _236
REMARK   96  A    between atoms: _236  and  _237
REMARK   97  A    between atoms: _236  and  _239
REMARK   98  A    between atoms: _239  and  _240
REMARK   99  A    between atoms: _243  and  _245
REMARK  100  A    between atoms: _245  and  _246
REMARK  101  A    between atoms: _245  and  _248
REMARK  102  A    between atoms: _251  and  _253
REMARK  103  A    between atoms: _253  and  _254
REMARK  104  A    between atoms: _253  and  _256
REMARK  105  A    between atoms: _256  and  _257
REMARK  106  A    between atoms: _260  and  _262
REMARK  107  A    between atoms: _262  and  _263
REMARK  108  A    between atoms: _262  and  _265
REMARK  109  A    between atoms: _265  and  _266
REMARK  110  A    between atoms: _269  and  _271
REMARK  111  A    between atoms: _271  and  _272
REMARK  112  A    between atoms: _275  and  _277
REMARK  113  A    between atoms: _277  and  _278
REMARK  114  A    between atoms: _277  and  _280
REMARK  115  A    between atoms: _280  and  _281
REMARK  116  A    between atoms: _281  and  _282
REMARK  117  A    between atoms: _282  and  MG_647
REMARK  118  A    between atoms: _284  and  _286
REMARK  119  A    between atoms: _286  and  _287
REMARK  120  A    between atoms: _286  and  _289
REMARK  121  A    between atoms: _289  and  _290
REMARK  122  A    between atoms: _293  and  _295
REMARK  123  A    between atoms: _295  and  _296
REMARK  124  A    between atoms: _295  and  _298
REMARK  125  A    between atoms: _298  and  _299
REMARK  126  A    between atoms: _302  and  _304
REMARK  127  A    between atoms: _304  and  _305
REMARK  128  A    between atoms: _304  and  _307
REMARK  129  A    between atoms: _310  and  _312
REMARK  130  A    between atoms: _312  and  _313
REMARK  131  A    between atoms: _316  and  _318
REMARK  132  A    between atoms: _318  and  _319
REMARK  133  A    between atoms: _318  and  _321
REMARK  134  A    between atoms: _321  and  _322
REMARK  135  A    between atoms: _325  and  _327
REMARK  136  A    between atoms: _327  and  _328
REMARK  137  A    between atoms: _327  and  _330
REMARK  138  A    between atoms: _330  and  _331
REMARK  139  A    between atoms: _331  and  _332
REMARK  140  A    between atoms: _335  and  _337
REMARK  141  A    between atoms: _337  and  _338
REMARK  142  A    between atoms: _337  and  _340
REMARK  143  A    between atoms: _340  and  _341
REMARK  144  A    between atoms: _341  and  _342
REMARK  145  A    between atoms: _345  and  _347
REMARK  146  A    between atoms: _347  and  _348
REMARK  147  A    between atoms: _347  and  _350
REMARK  148  A    between atoms: _353  and  _355
REMARK  149  A    between atoms: _355  and  _356
REMARK  150  A    between atoms: _355  and  _358
REMARK  151  A    between atoms: _358  and  _359
REMARK  152  A    between atoms: _361  and  _363
REMARK  153  A    between atoms: _363  and  _364
REMARK  154  A    between atoms: _363  and  _366
REMARK  155  A    between atoms: _366  and  _367
REMARK  156  A    between atoms: _367  and  _368
REMARK  157  A    between atoms: _368  and  _369
REMARK  158  A    between atoms: _369  and  _370
REMARK  159  A    between atoms: _374  and  _376
REMARK  160  A    between atoms: _376  and  _377
REMARK  161  A    between atoms: _376  and  _379
REMARK  162  A    between atoms: _379  and  _380
REMARK  163  A    between atoms: _385  and  _386
REMARK  164  A    between atoms: _388  and  _390
REMARK  165  A    between atoms: _390  and  _391
REMARK  166  A    between atoms: _393  and  _395
REMARK  167  A    between atoms: _395  and  _396
REMARK  168  A    between atoms: _395  and  _398
REMARK  169  A    between atoms: _401  and  _403
REMARK  170  A    between atoms: _403  and  _404
REMARK  171  A    between atoms: _403  and  _406
REMARK  172  A    between atoms: _406  and  _407
REMARK  173  A    between atoms: _407  and  _408
REMARK  174  A    between atoms: _410  and  _412
REMARK  175  A    between atoms: _412  and  _413
REMARK  176  A    between atoms: _412  and  _415
REMARK  177  A    between atoms: _418  and  _420
REMARK  178  A    between atoms: _420  and  _421
REMARK  179  A    between atoms: _420  and  _423
REMARK  180  A    between atoms: _423  and  _424
REMARK  181  A    between atoms: _424  and  _425
REMARK  182  A    between atoms: _428  and  _430
REMARK  183  A    between atoms: _430  and  _431
REMARK  184  A    between atoms: _430  and  _433
REMARK  185  A    between atoms: _433  and  _434
REMARK  186  A    between atoms: _434  and  _435
REMARK  187  A    between atoms: _435  and  _436
REMARK  188  A    between atoms: _436  and  _437
REMARK  189  A    between atoms: _441  and  _443
REMARK  190  A    between atoms: _443  and  _444
REMARK  191  A    between atoms: _443  and  _446
REMARK  192  A    between atoms: _446  and  _447
REMARK  193  A    between atoms: _450  and  _452
REMARK  194  A    between atoms: _452  and  _453
REMARK  195  A    between atoms: _456  and  _458
REMARK  196  A    between atoms: _458  and  _459
REMARK  197  A    between atoms: _458  and  _461
REMARK  198  A    between atoms: _464  and  _466
REMARK  199  A    between atoms: _466  and  _467
REMARK  200  A    between atoms: _466  and  _469
REMARK  201  A    between atoms: _469  and  _470
REMARK  202  A    between atoms: _473  and  _475
REMARK  203  A    between atoms: _475  and  _476
REMARK  204  A    between atoms: _478  and  _480
REMARK  205  A    between atoms: _480  and  _481
REMARK  206  A    between atoms: _480  and  _483
REMARK  207  A    between atoms: _483  and  _484
REMARK  208  A    between atoms: _484  and  _485
REMARK  209  A    between atoms: _485  and  _486
REMARK  210  A    between atoms: _495  and  _497
REMARK  211  A    between atoms: _497  and  _498
REMARK  212  A    between atoms: _497  and  _500
REMARK  213  A    between atoms: _500  and  _501
REMARK  214  A    between atoms: _506  and  _507
REMARK  215  A    between atoms: _509  and  _511
REMARK  216  A    between atoms: _511  and  _512
REMARK  217  A    between atoms: _511  and  _514
REMARK  218  A    between atoms: _514  and  _515
REMARK  219  A    between atoms: _520  and  _522
REMARK  220  A    between atoms: _522  and  _523
REMARK  221  A    between atoms: _522  and  _525
REMARK  222  A    between atoms: _525  and  _526
REMARK  223  A    between atoms: _526  and  _527
REMARK  224  A    between atoms: _530  and  _532
REMARK  225  A    between atoms: _532  and  _533
REMARK  226  A    between atoms: _532  and  _535
REMARK  227  A    between atoms: _535  and  _536
REMARK  228  A    between atoms: _539  and  _541
REMARK  229  A    between atoms: _541  and  _542
REMARK  230  A    between atoms: _541  and  _544
REMARK  231  A    between atoms: _544  and  _545
REMARK  232  A    between atoms: _545  and  _546
REMARK  233  A    between atoms: _551  and  _553
REMARK  234  A    between atoms: _553  and  _554
REMARK  235  A    between atoms: _553  and  _556
REMARK  236  A    between atoms: _556  and  _557
REMARK  237  A    between atoms: _560  and  _562
REMARK  238  A    between atoms: _562  and  _563
REMARK  239  A    between atoms: _562  and  _565
REMARK  240  A    between atoms: _565  and  _566
REMARK  241  A    between atoms: _569  and  _571
REMARK  242  A    between atoms: _571  and  _572
REMARK  243  A    between atoms: _571  and  _574
REMARK  244  A    between atoms: _574  and  _575
REMARK  245  A    between atoms: _578  and  _580
REMARK  246  A    between atoms: _580  and  _581
REMARK  247  A    between atoms: _580  and  _583
REMARK  248  A    between atoms: _583  and  _584
REMARK  249  A    between atoms: _587  and  _589
REMARK  250  A    between atoms: _589  and  _590
REMARK  251  A    between atoms: _589  and  _592
REMARK  252  A    between atoms: _592  and  _593
REMARK  253  A    between atoms: _593  and  _594
REMARK  254  A    between atoms: _594  and  _595
REMARK  255  A    between atoms: _604  and  _606
REMARK  256  A    between atoms: _606  and  _607
REMARK  257  A    between atoms: _606  and  _609
REMARK  258  A    between atoms: _609  and  _610
REMARK  259  A    between atoms: _615  and  _616
REMARK  260  A    between atoms: _618  and  _620
REMARK  261  A    between atoms: _620  and  _621
REMARK  262  A    between atoms: _620  and  _623
REMARK  263  A    between atoms: _623  and  _624
REMARK  264  A    between atoms: _627  and  _629
REMARK  265  A    between atoms: _629  and  _630
REMARK  266  A    between atoms: _629  and  _632
REMARK  267  A    between atoms: _634  and  _636
REMARK  268  A    between atoms: _636  and  _637
REMARK  269  A    between atoms: _639  and  _641
REMARK  270  A    between atoms: _641  and  _642
REMARK  271  A    between atoms: _641  and  _644
REMARK  272  A    between atoms: _644  and  _645
REMARK                            x       y       z     vdW  Elec       q    Type
REMARK                         _______ _______ _______ _____ _____    ______ ____
ROOT
ATOM      1  O   HOH     1      67.548  38.868  56.537  0.00  0.00    +0.000 OA
ENDROOT
TORSDOF 0
REMARK  Name = ../refined-set-2016/3juk/3juk_pocket.pdb
REMARK  272 active torsions:
REMARK  status: ('A' for Active; 'I' for Inactive)
REMARK    1  A    between atoms: _1  and  _3
REMARK    2  A    between atoms: _3  and  _4
REMARK    3  A    between atoms: _3  and  _6
REMARK    4  A    between atoms: _6  and  _7
REMARK    5  A    between atoms: _14  and  _15
REMARK    6  A    between atoms: _20  and  _22
REMARK    7  A    between atoms: _22  and  _23
REMARK    8  A    between atoms: _26  and  _28
REMARK    9  A    between atoms: _28  and  _29
REMARK   10  A    between atoms: _32  and  _34
REMARK   11  A    between atoms: _34  and  _35
REMARK   12  A    between atoms: _37  and  _39
REMARK   13  A    between atoms: _39  and  _40
REMARK   14  A    between atoms: _39  and  _42
REMARK   15  A    between atoms: _42  and  _43
REMARK   16  A    between atoms: _48  and  _49
REMARK   17  A    between atoms: _51  and  _53
REMARK   18  A    between atoms: _53  and  _54
REMARK   19  A    between atoms: _56  and  _58
REMARK   20  A    between atoms: _58  and  _59
REMARK   21  A    between atoms: _58  and  _61
REMARK   22  A    between atoms: _61  and  _62
REMARK   23  A    between atoms: _65  and  _67
REMARK   24  A    between atoms: _67  and  _68
REMARK   25  A    between atoms: _67  and  _70
REMARK   26  A    between atoms: _70  and  _71
REMARK   27  A    between atoms: _71  and  _72
REMARK   28  A    between atoms: _72  and  _73
REMARK   29  A    between atoms: _83  and  _84
REMARK   30  A    between atoms: _89  and  _91
REMARK   31  A    between atoms: _91  and  _92
REMARK   32  A    between atoms: _91  and  _94
REMARK   33  A    between atoms: _94  and  _95
REMARK   34  A    between atoms: _95  and  _96
REMARK   35  A    between atoms: _96  and  _97
REMARK   36  A    between atoms: _97  and  _98
REMARK   37  A    between atoms: _102  and  _104
REMARK   38  A    between atoms: _104  and  _105
REMARK   39  A    between atoms: _104  and  _107
REMARK   40  A    between atoms: _107  and  _108
REMARK   41  A    between atoms: _108  and  _109
REMARK   42  A    between atoms: _112  and  _114
REMARK   43  A    between atoms: _114  and  _115
REMARK   44  A    between atoms: _114  and  _117
REMARK   45  A    between atoms: _117  and  _118
REMARK   46  A    between atoms: _121  and  _123
REMARK   47  A    between atoms: _123  and  _124
REMARK   48  A    between atoms: _123  and  _126
REMARK   49  A    between atoms: _129  and  _131
REMARK   50  A    between atoms: _131  and  _132
REMARK   51  A    between atoms: _131  and  _134
REMARK   52  A    between atoms: _134  and  _135
REMARK   53  A    between atoms: _138  and  _140
REMARK   54  A    between atoms: _140  and  _141
REMARK   55  A    between atoms: _143  and  _145
REMARK   56  A    between atoms: _145  and  _146
REMARK   57  A    between atoms: _145  and  _148
REMARK   58  A    between atoms: _148  and  _149
REMARK   59  A    between atoms: _149  and  _150
REMARK   60  A    between atoms: _155  and  _157
REMARK   61  A    between atoms: _157  and  _158
REMARK   62  A    between atoms: _157  and  _160
REMARK   63  A    between atoms: _160  and  _161
REMARK   64  A    between atoms: _161  and  _162
REMARK   65  A    between atoms: _167  and  _169
REMARK   66  A    between atoms: _169  and  _170
REMARK   67  A    between atoms: _169  and  _172
REMARK   68  A    between atoms: _172  and  _173
REMARK   69  A    between atoms: _173  and  _174
REMARK   70  A    between atoms: _176  and  _178
REMARK   71  A    between atoms: _178  and  _179
REMARK   72  A    between atoms: _178  and  _181
REMARK   73  A    between atoms: _181  and  _182
REMARK   74  A    between atoms: _182  and  _183
REMARK   75  A    between atoms: _183  and  _184
REMARK   76  A    between atoms: _184  and  _185
REMARK   77  A    between atoms: _189  and  _191
REMARK   78  A    between atoms: _191  and  _192
REMARK   79  A    between atoms: _194  and  _196
REMARK   80  A    between atoms: _196  and  _197
REMARK   81  A    between atoms: _196  and  _199
REMARK   82  A    between atoms: _199  and  _200
REMARK   83  A    between atoms: _203  and  _205
REMARK   84  A    between atoms: _205  and  _206
REMARK   85  A    between atoms: _208  and  _210
REMARK   86  A    between atoms: _210  and  _211
REMARK   87  A    between atoms: _210  and  _213
REMARK   88  A    between atoms: _213  and  _214
REMARK   89  A    between atoms: _219  and  _221
REMARK   90  A    between atoms: _221  and  _222
REMARK   91  A    between atoms: _225  and  _227
REMARK   92  A    between atoms: _227  and  _228
REMARK   93  A    between atoms: _227  and  _230
REMARK   94  A    between atoms: _230  and  _231
REMARK   95  A    between atoms: _234  and  _236
REMARK   96  A    between atoms: _236  and  _237
REMARK   97  A    between atoms: _236  and  _239
REMARK   98  A    between atoms: _239  and  _240
REMARK   99  A    between atoms: _243  and  _245
REMARK  100  A    between atoms: _245  and  _246
REMARK  101  A    between atoms: _245  and  _248
REMARK  102  A    between atoms: _251  and  _253
REMARK  103  A    between atoms: _253  and  _254
REMARK  104  A    between atoms: _253  and  _256
REMARK  105  A    between atoms: _256  and  _257
REMARK  106  A    between atoms: _260  and  _262
REMARK  107  A    between atoms: _262  and  _263
REMARK  108  A    between atoms: _262  and  _265
REMARK  109  A    between atoms: _265  and  _266
REMARK  110  A    between atoms: _269  and  _271
REMARK  111  A    between atoms: _271  and  _272
REMARK  112  A    between atoms: _275  and  _277
REMARK  113  A    between atoms: _277  and  _278
REMARK  114  A    between atoms: _277  and  _280
REMARK  115  A    between atoms: _280  and  _281
REMARK  116  A    between atoms: _281  and  _282
REMARK  117  A    between atoms: _282  and  MG_647
REMARK  118  A    between atoms: _284  and  _286
REMARK  119  A    between atoms: _286  and  _287
REMARK  120  A    between atoms: _286  and  _289
REMARK  121  A    between atoms: _289  and  _290
REMARK  122  A    between atoms: _293  and  _295
REMARK  123  A    between atoms: _295  and  _296
REMARK  124  A    between atoms: _295  and  _298
REMARK  125  A    between atoms: _298  and  _299
REMARK  126  A    between atoms: _302  and  _304
REMARK  127  A    between atoms: _304  and  _305
REMARK  128  A    between atoms: _304  and  _307
REMARK  129  A    between atoms: _310  and  _312
REMARK  130  A    between atoms: _312  and  _313
REMARK  131  A    between atoms: _316  and  _318
REMARK  132  A    between atoms: _318  and  _319
REMARK  133  A    between atoms: _318  and  _321
REMARK  134  A    between atoms: _321  and  _322
REMARK  135  A    between atoms: _325  and  _327
REMARK  136  A    between atoms: _327  and  _328
REMARK  137  A    between atoms: _327  and  _330
REMARK  138  A    between atoms: _330  and  _331
REMARK  139  A    between atoms: _331  and  _332
REMARK  140  A    between atoms: _335  and  _337
REMARK  141  A    between atoms: _337  and  _338
REMARK  142  A    between atoms: _337  and  _340
REMARK  143  A    between atoms: _340  and  _341
REMARK  144  A    between atoms: _341  and  _342
REMARK  145  A    between atoms: _345  and  _347
REMARK  146  A    between atoms: _347  and  _348
REMARK  147  A    between atoms: _347  and  _350
REMARK  148  A    between atoms: _353  and  _355
REMARK  149  A    between atoms: _355  and  _356
REMARK  150  A    between atoms: _355  and  _358
REMARK  151  A    between atoms: _358  and  _359
REMARK  152  A    between atoms: _361  and  _363
REMARK  153  A    between atoms: _363  and  _364
REMARK  154  A    between atoms: _363  and  _366
REMARK  155  A    between atoms: _366  and  _367
REMARK  156  A    between atoms: _367  and  _368
REMARK  157  A    between atoms: _368  and  _369
REMARK  158  A    between atoms: _369  and  _370
REMARK  159  A    between atoms: _374  and  _376
REMARK  160  A    between atoms: _376  and  _377
REMARK  161  A    between atoms: _376  and  _379
REMARK  162  A    between atoms: _379  and  _380
REMARK  163  A    between atoms: _385  and  _386
REMARK  164  A    between atoms: _388  and  _390
REMARK  165  A    between atoms: _390  and  _391
REMARK  166  A    between atoms: _393  and  _395
REMARK  167  A    between atoms: _395  and  _396
REMARK  168  A    between atoms: _395  and  _398
REMARK  169  A    between atoms: _401  and  _403
REMARK  170  A    between atoms: _403  and  _404
REMARK  171  A    between atoms: _403  and  _406
REMARK  172  A    between atoms: _406  and  _407
REMARK  173  A    between atoms: _407  and  _408
REMARK  174  A    between atoms: _410  and  _412
REMARK  175  A    between atoms: _412  and  _413
REMARK  176  A    between atoms: _412  and  _415
REMARK  177  A    between atoms: _418  and  _420
REMARK  178  A    between atoms: _420  and  _421
REMARK  179  A    between atoms: _420  and  _423
REMARK  180  A    between atoms: _423  and  _424
REMARK  181  A    between atoms: _424  and  _425
REMARK  182  A    between atoms: _428  and  _430
REMARK  183  A    between atoms: _430  and  _431
REMARK  184  A    between atoms: _430  and  _433
REMARK  185  A    between atoms: _433  and  _434
REMARK  186  A    between atoms: _434  and  _435
REMARK  187  A    between atoms: _435  and  _436
REMARK  188  A    between atoms: _436  and  _437
REMARK  189  A    between atoms: _441  and  _443
REMARK  190  A    between atoms: _443  and  _444
REMARK  191  A    between atoms: _443  and  _446
REMARK  192  A    between atoms: _446  and  _447
REMARK  193  A    between atoms: _450  and  _452
REMARK  194  A    between atoms: _452  and  _453
REMARK  195  A    between atoms: _456  and  _458
REMARK  196  A    between atoms: _458  and  _459
REMARK  197  A    between atoms: _458  and  _461
REMARK  198  A    between atoms: _464  and  _466
REMARK  199  A    between atoms: _466  and  _467
REMARK  200  A    between atoms: _466  and  _469
REMARK  201  A    between atoms: _469  and  _470
REMARK  202  A    between atoms: _473  and  _475
REMARK  203  A    between atoms: _475  and  _476
REMARK  204  A    between atoms: _478  and  _480
REMARK  205  A    between atoms: _480  and  _481
REMARK  206  A    between atoms: _480  and  _483
REMARK  207  A    between atoms: _483  and  _484
REMARK  208  A    between atoms: _484  and  _485
REMARK  209  A    between atoms: _485  and  _486
REMARK  210  A    between atoms: _495  and  _497
REMARK  211  A    between atoms: _497  and  _498
REMARK  212  A    between atoms: _497  and  _500
REMARK  213  A    between atoms: _500  and  _501
REMARK  214  A    between atoms: _506  and  _507
REMARK  215  A    between atoms: _509  and  _511
REMARK  216  A    between atoms: _511  and  _512
REMARK  217  A    between atoms: _511  and  _514
REMARK  218  A    between atoms: _514  and  _515
REMARK  219  A    between atoms: _520  and  _522
REMARK  220  A    between atoms: _522  and  _523
REMARK  221  A    between atoms: _522  and  _525
REMARK  222  A    between atoms: _525  and  _526
REMARK  223  A    between atoms: _526  and  _527
REMARK  224  A    between atoms: _530  and  _532
REMARK  225  A    between atoms: _532  and  _533
REMARK  226  A    between atoms: _532  and  _535
REMARK  227  A    between atoms: _535  and  _536
REMARK  228  A    between atoms: _539  and  _541
REMARK  229  A    between atoms: _541  and  _542
REMARK  230  A    between atoms: _541  and  _544
REMARK  231  A    between atoms: _544  and  _545
REMARK  232  A    between atoms: _545  and  _546
REMARK  233  A    between atoms: _551  and  _553
REMARK  234  A    between atoms: _553  and  _554
REMARK  235  A    between atoms: _553  and  _556
REMARK  236  A    between atoms: _556  and  _557
REMARK  237  A    between atoms: _560  and  _562
REMARK  238  A    between atoms: _562  and  _563
REMARK  239  A    between atoms: _562  and  _565
REMARK  240  A    between atoms: _565  and  _566
REMARK  241  A    between atoms: _569  and  _571
REMARK  242  A    between atoms: _571  and  _572
REMARK  243  A    between atoms: _571  and  _574
REMARK  244  A    between atoms: _574  and  _575
REMARK  245  A    between atoms: _578  and  _580
REMARK  246  A    between atoms: _580  and  _581
REMARK  247  A    between atoms: _580  and  _583
REMARK  248  A    between atoms: _583  and  _584
REMARK  249  A    between atoms: _587  and  _589
REMARK  250  A    between atoms: _589  and  _590
REMARK  251  A    between atoms: _589  and  _592
REMARK  252  A    between atoms: _592  and  _593
REMARK  253  A    between atoms: _593  and  _594
REMARK  254  A    between atoms: _594  and  _595
REMARK  255  A    between atoms: _604  and  _606
REMARK  256  A    between atoms: _606  and  _607
REMARK  257  A    between atoms: _606  and  _609
REMARK  258  A    between atoms: _609  and  _610
REMARK  259  A    between atoms: _615  and  _616
REMARK  260  A    between atoms: _618  and  _620
REMARK  261  A    between atoms: _620  and  _621
REMARK  262  A    between atoms: _620  and  _623
REMARK  263  A    between atoms: _623  and  _624
REMARK  264  A    between atoms: _627  and  _629
REMARK  265  A    between atoms: _629  and  _630
REMARK  266  A    between atoms: _629  and  _632
REMARK  267  A    between atoms: _634  and  _636
REMARK  268  A    between atoms: _636  and  _637
REMARK  269  A    between atoms: _639  and  _641
REMARK  270  A    between atoms: _641  and  _642
REMARK  271  A    between atoms: _641  and  _644
REMARK  272  A    between atoms: _644  and  _645
REMARK                            x       y       z     vdW  Elec       q    Type
REMARK                         _______ _______ _______ _____ _____    ______ ____
ROOT
ATOM      1  O   HOH     1      62.072  44.519  56.870  0.00  0.00    +0.000 OA
ENDROOT
TORSDOF 0
REMARK  Name = ../refined-set-2016/3juk/3juk_pocket.pdb
REMARK  272 active torsions:
REMARK  status: ('A' for Active; 'I' for Inactive)
REMARK    1  A    between atoms: _1  and  _3
REMARK    2  A    between atoms: _3  and  _4
REMARK    3  A    between atoms: _3  and  _6
REMARK    4  A    between atoms: _6  and  _7
REMARK    5  A    between atoms: _14  and  _15
REMARK    6  A    between atoms: _20  and  _22
REMARK    7  A    between atoms: _22  and  _23
REMARK    8  A    between atoms: _26  and  _28
REMARK    9  A    between atoms: _28  and  _29
REMARK   10  A    between atoms: _32  and  _34
REMARK   11  A    between atoms: _34  and  _35
REMARK   12  A    between atoms: _37  and  _39
REMARK   13  A    between atoms: _39  and  _40
REMARK   14  A    between atoms: _39  and  _42
REMARK   15  A    between atoms: _42  and  _43
REMARK   16  A    between atoms: _48  and  _49
REMARK   17  A    between atoms: _51  and  _53
REMARK   18  A    between atoms: _53  and  _54
REMARK   19  A    between atoms: _56  and  _58
REMARK   20  A    between atoms: _58  and  _59
REMARK   21  A    between atoms: _58  and  _61
REMARK   22  A    between atoms: _61  and  _62
REMARK   23  A    between atoms: _65  and  _67
REMARK   24  A    between atoms: _67  and  _68
REMARK   25  A    between atoms: _67  and  _70
REMARK   26  A    between atoms: _70  and  _71
REMARK   27  A    between atoms: _71  and  _72
REMARK   28  A    between atoms: _72  and  _73
REMARK   29  A    between atoms: _83  and  _84
REMARK   30  A    between atoms: _89  and  _91
REMARK   31  A    between atoms: _91  and  _92
REMARK   32  A    between atoms: _91  and  _94
REMARK   33  A    between atoms: _94  and  _95
REMARK   34  A    between atoms: _95  and  _96
REMARK   35  A    between atoms: _96  and  _97
REMARK   36  A    between atoms: _97  and  _98
REMARK   37  A    between atoms: _102  and  _104
REMARK   38  A    between atoms: _104  and  _105
REMARK   39  A    between atoms: _104  and  _107
REMARK   40  A    between atoms: _107  and  _108
REMARK   41  A    between atoms: _108  and  _109
REMARK   42  A    between atoms: _112  and  _114
REMARK   43  A    between atoms: _114  and  _115
REMARK   44  A    between atoms: _114  and  _117
REMARK   45  A    between atoms: _117  and  _118
REMARK   46  A    between atoms: _121  and  _123
REMARK   47  A    between atoms: _123  and  _124
REMARK   48  A    between atoms: _123  and  _126
REMARK   49  A    between atoms: _129  and  _131
REMARK   50  A    between atoms: _131  and  _132
REMARK   51  A    between atoms: _131  and  _134
REMARK   52  A    between atoms: _134  and  _135
REMARK   53  A    between atoms: _138  and  _140
REMARK   54  A    between atoms: _140  and  _141
REMARK   55  A    between atoms: _143  and  _145
REMARK   56  A    between atoms: _145  and  _146
REMARK   57  A    between atoms: _145  and  _148
REMARK   58  A    between atoms: _148  and  _149
REMARK   59  A    between atoms: _149  and  _150
REMARK   60  A    between atoms: _155  and  _157
REMARK   61  A    between atoms: _157  and  _158
REMARK   62  A    between atoms: _157  and  _160
REMARK   63  A    between atoms: _160  and  _161
REMARK   64  A    between atoms: _161  and  _162
REMARK   65  A    between atoms: _167  and  _169
REMARK   66  A    between atoms: _169  and  _170
REMARK   67  A    between atoms: _169  and  _172
REMARK   68  A    between atoms: _172  and  _173
REMARK   69  A    between atoms: _173  and  _174
REMARK   70  A    between atoms: _176  and  _178
REMARK   71  A    between atoms: _178  and  _179
REMARK   72  A    between atoms: _178  and  _181
REMARK   73  A    between atoms: _181  and  _182
REMARK   74  A    between atoms: _182  and  _183
REMARK   75  A    between atoms: _183  and  _184
REMARK   76  A    between atoms: _184  and  _185
REMARK   77  A    between atoms: _189  and  _191
REMARK   78  A    between atoms: _191  and  _192
REMARK   79  A    between atoms: _194  and  _196
REMARK   80  A    between atoms: _196  and  _197
REMARK   81  A    between atoms: _196  and  _199
REMARK   82  A    between atoms: _199  and  _200
REMARK   83  A    between atoms: _203  and  _205
REMARK   84  A    between atoms: _205  and  _206
REMARK   85  A    between atoms: _208  and  _210
REMARK   86  A    between atoms: _210  and  _211
REMARK   87  A    between atoms: _210  and  _213
REMARK   88  A    between atoms: _213  and  _214
REMARK   89  A    between atoms: _219  and  _221
REMARK   90  A    between atoms: _221  and  _222
REMARK   91  A    between atoms: _225  and  _227
REMARK   92  A    between atoms: _227  and  _228
REMARK   93  A    between atoms: _227  and  _230
REMARK   94  A    between atoms: _230  and  _231
REMARK   95  A    between atoms: _234  and  _236
REMARK   96  A    between atoms: _236  and  _237
REMARK   97  A    between atoms: _236  and  _239
REMARK   98  A    between atoms: _239  and  _240
REMARK   99  A    between atoms: _243  and  _245
REMARK  100  A    between atoms: _245  and  _246
REMARK  101  A    between atoms: _245  and  _248
REMARK  102  A    between atoms: _251  and  _253
REMARK  103  A    between atoms: _253  and  _254
REMARK  104  A    between atoms: _253  and  _256
REMARK  105  A    between atoms: _256  and  _257
REMARK  106  A    between atoms: _260  and  _262
REMARK  107  A    between atoms: _262  and  _263
REMARK  108  A    between atoms: _262  and  _265
REMARK  109  A    between atoms: _265  and  _266
REMARK  110  A    between atoms: _269  and  _271
REMARK  111  A    between atoms: _271  and  _272
REMARK  112  A    between atoms: _275  and  _277
REMARK  113  A    between atoms: _277  and  _278
REMARK  114  A    between atoms: _277  and  _280
REMARK  115  A    between atoms: _280  and  _281
REMARK  116  A    between atoms: _281  and  _282
REMARK  117  A    between atoms: _282  and  MG_647
REMARK  118  A    between atoms: _284  and  _286
REMARK  119  A    between atoms: _286  and  _287
REMARK  120  A    between atoms: _286  and  _289
REMARK  121  A    between atoms: _289  and  _290
REMARK  122  A    between atoms: _293  and  _295
REMARK  123  A    between atoms: _295  and  _296
REMARK  124  A    between atoms: _295  and  _298
REMARK  125  A    between atoms: _298  and  _299
REMARK  126  A    between atoms: _302  and  _304
REMARK  127  A    between atoms: _304  and  _305
REMARK  128  A    between atoms: _304  and  _307
REMARK  129  A    between atoms: _310  and  _312
REMARK  130  A    between atoms: _312  and  _313
REMARK  131  A    between atoms: _316  and  _318
REMARK  132  A    between atoms: _318  and  _319
REMARK  133  A    between atoms: _318  and  _321
REMARK  134  A    between atoms: _321  and  _322
REMARK  135  A    between atoms: _325  and  _327
REMARK  136  A    between atoms: _327  and  _328
REMARK  137  A    between atoms: _327  and  _330
REMARK  138  A    between atoms: _330  and  _331
REMARK  139  A    between atoms: _331  and  _332
REMARK  140  A    between atoms: _335  and  _337
REMARK  141  A    between atoms: _337  and  _338
REMARK  142  A    between atoms: _337  and  _340
REMARK  143  A    between atoms: _340  and  _341
REMARK  144  A    between atoms: _341  and  _342
REMARK  145  A    between atoms: _345  and  _347
REMARK  146  A    between atoms: _347  and  _348
REMARK  147  A    between atoms: _347  and  _350
REMARK  148  A    between atoms: _353  and  _355
REMARK  149  A    between atoms: _355  and  _356
REMARK  150  A    between atoms: _355  and  _358
REMARK  151  A    between atoms: _358  and  _359
REMARK  152  A    between atoms: _361  and  _363
REMARK  153  A    between atoms: _363  and  _364
REMARK  154  A    between atoms: _363  and  _366
REMARK  155  A    between atoms: _366  and  _367
REMARK  156  A    between atoms: _367  and  _368
REMARK  157  A    between atoms: _368  and  _369
REMARK  158  A    between atoms: _369  and  _370
REMARK  159  A    between atoms: _374  and  _376
REMARK  160  A    between atoms: _376  and  _377
REMARK  161  A    between atoms: _376  and  _379
REMARK  162  A    between atoms: _379  and  _380
REMARK  163  A    between atoms: _385  and  _386
REMARK  164  A    between atoms: _388  and  _390
REMARK  165  A    between atoms: _390  and  _391
REMARK  166  A    between atoms: _393  and  _395
REMARK  167  A    between atoms: _395  and  _396
REMARK  168  A    between atoms: _395  and  _398
REMARK  169  A    between atoms: _401  and  _403
REMARK  170  A    between atoms: _403  and  _404
REMARK  171  A    between atoms: _403  and  _406
REMARK  172  A    between atoms: _406  and  _407
REMARK  173  A    between atoms: _407  and  _408
REMARK  174  A    between atoms: _410  and  _412
REMARK  175  A    between atoms: _412  and  _413
REMARK  176  A    between atoms: _412  and  _415
REMARK  177  A    between atoms: _418  and  _420
REMARK  178  A    between atoms: _420  and  _421
REMARK  179  A    between atoms: _420  and  _423
REMARK  180  A    between atoms: _423  and  _424
REMARK  181  A    between atoms: _424  and  _425
REMARK  182  A    between atoms: _428  and  _430
REMARK  183  A    between atoms: _430  and  _431
REMARK  184  A    between atoms: _430  and  _433
REMARK  185  A    between atoms: _433  and  _434
REMARK  186  A    between atoms: _434  and  _435
REMARK  187  A    between atoms: _435  and  _436
REMARK  188  A    between atoms: _436  and  _437
REMARK  189  A    between atoms: _441  and  _443
REMARK  190  A    between atoms: _443  and  _444
REMARK  191  A    between atoms: _443  and  _446
REMARK  192  A    between atoms: _446  and  _447
REMARK  193  A    between atoms: _450  and  _452
REMARK  194  A    between atoms: _452  and  _453
REMARK  195  A    between atoms: _456  and  _458
REMARK  196  A    between atoms: _458  and  _459
REMARK  197  A    between atoms: _458  and  _461
REMARK  198  A    between atoms: _464  and  _466
REMARK  199  A    between atoms: _466  and  _467
REMARK  200  A    between atoms: _466  and  _469
REMARK  201  A    between atoms: _469  and  _470
REMARK  202  A    between atoms: _473  and  _475
REMARK  203  A    between atoms: _475  and  _476
REMARK  204  A    between atoms: _478  and  _480
REMARK  205  A    between atoms: _480  and  _481
REMARK  206  A    between atoms: _480  and  _483
REMARK  207  A    between atoms: _483  and  _484
REMARK  208  A    between atoms: _484  and  _485
REMARK  209  A    between atoms: _485  and  _486
REMARK  210  A    between atoms: _495  and  _497
REMARK  211  A    between atoms: _497  and  _498
REMARK  212  A    between atoms: _497  and  _500
REMARK  213  A    between atoms: _500  and  _501
REMARK  214  A    between atoms: _506  and  _507
REMARK  215  A    between atoms: _509  and  _511
REMARK  216  A    between atoms: _511  and  _512
REMARK  217  A    between atoms: _511  and  _514
REMARK  218  A    between atoms: _514  and  _515
REMARK  219  A    between atoms: _520  and  _522
REMARK  220  A    between atoms: _522  and  _523
REMARK  221  A    between atoms: _522  and  _525
REMARK  222  A    between atoms: _525  and  _526
REMARK  223  A    between atoms: _526  and  _527
REMARK  224  A    between atoms: _530  and  _532
REMARK  225  A    between atoms: _532  and  _533
REMARK  226  A    between atoms: _532  and  _535
REMARK  227  A    between atoms: _535  and  _536
REMARK  228  A    between atoms: _539  and  _541
REMARK  229  A    between atoms: _541  and  _542
REMARK  230  A    between atoms: _541  and  _544
REMARK  231  A    between atoms: _544  and  _545
REMARK  232  A    between atoms: _545  and  _546
REMARK  233  A    between atoms: _551  and  _553
REMARK  234  A    between atoms: _553  and  _554
REMARK  235  A    between atoms: _553  and  _556
REMARK  236  A    between atoms: _556  and  _557
REMARK  237  A    between atoms: _560  and  _562
REMARK  238  A    between atoms: _562  and  _563
REMARK  239  A    between atoms: _562  and  _565
REMARK  240  A    between atoms: _565  and  _566
REMARK  241  A    between atoms: _569  and  _571
REMARK  242  A    between atoms: _571  and  _572
REMARK  243  A    between atoms: _571  and  _574
REMARK  244  A    between atoms: _574  and  _575
REMARK  245  A    between atoms: _578  and  _580
REMARK  246  A    between atoms: _580  and  _581
REMARK  247  A    between atoms: _580  and  _583
REMARK  248  A    between atoms: _583  and  _584
REMARK  249  A    between atoms: _587  and  _589
REMARK  250  A    between atoms: _589  and  _590
REMARK  251  A    between atoms: _589  and  _592
REMARK  252  A    between atoms: _592  and  _593
REMARK  253  A    between atoms: _593  and  _594
REMARK  254  A    between atoms: _594  and  _595
REMARK  255  A    between atoms: _604  and  _606
REMARK  256  A    between atoms: _606  and  _607
REMARK  257  A    between atoms: _606  and  _609
REMARK  258  A    between atoms: _609  and  _610
REMARK  259  A    between atoms: _615  and  _616
REMARK  260  A    between atoms: _618  and  _620
REMARK  261  A    between atoms: _620  and  _621
REMARK  262  A    between atoms: _620  and  _623
REMARK  263  A    between atoms: _623  and  _624
REMARK  264  A    between atoms: _627  and  _629
REMARK  265  A    between atoms: _629  and  _630
REMARK  266  A    between atoms: _629  and  _632
REMARK  267  A    between atoms: _634  and  _636
REMARK  268  A    between atoms: _636  and  _637
REMARK  269  A    between atoms: _639  and  _641
REMARK  270  A    between atoms: _641  and  _642
REMARK  271  A    between atoms: _641  and  _644
REMARK  272  A    between atoms: _644  and  _645
REMARK                            x       y       z     vdW  Elec       q    Type
REMARK                         _______ _______ _______ _____ _____    ______ ____
ROOT
ATOM      1  O   HOH     1      55.709  42.674  55.991  0.00  0.00    +0.000 OA
ENDROOT
TORSDOF 0
REMARK  Name = ../refined-set-2016/3juk/3juk_pocket.pdb
REMARK  272 active torsions:
REMARK  status: ('A' for Active; 'I' for Inactive)
REMARK    1  A    between atoms: _1  and  _3
REMARK    2  A    between atoms: _3  and  _4
REMARK    3  A    between atoms: _3  and  _6
REMARK    4  A    between atoms: _6  and  _7
REMARK    5  A    between atoms: _14  and  _15
REMARK    6  A    between atoms: _20  and  _22
REMARK    7  A    between atoms: _22  and  _23
REMARK    8  A    between atoms: _26  and  _28
REMARK    9  A    between atoms: _28  and  _29
REMARK   10  A    between atoms: _32  and  _34
REMARK   11  A    between atoms: _34  and  _35
REMARK   12  A    between atoms: _37  and  _39
REMARK   13  A    between atoms: _39  and  _40
REMARK   14  A    between atoms: _39  and  _42
REMARK   15  A    between atoms: _42  and  _43
REMARK   16  A    between atoms: _48  and  _49
REMARK   17  A    between atoms: _51  and  _53
REMARK   18  A    between atoms: _53  and  _54
REMARK   19  A    between atoms: _56  and  _58
REMARK   20  A    between atoms: _58  and  _59
REMARK   21  A    between atoms: _58  and  _61
REMARK   22  A    between atoms: _61  and  _62
REMARK   23  A    between atoms: _65  and  _67
REMARK   24  A    between atoms: _67  and  _68
REMARK   25  A    between atoms: _67  and  _70
REMARK   26  A    between atoms: _70  and  _71
REMARK   27  A    between atoms: _71  and  _72
REMARK   28  A    between atoms: _72  and  _73
REMARK   29  A    between atoms: _83  and  _84
REMARK   30  A    between atoms: _89  and  _91
REMARK   31  A    between atoms: _91  and  _92
REMARK   32  A    between atoms: _91  and  _94
REMARK   33  A    between atoms: _94  and  _95
REMARK   34  A    between atoms: _95  and  _96
REMARK   35  A    between atoms: _96  and  _97
REMARK   36  A    between atoms: _97  and  _98
REMARK   37  A    between atoms: _102  and  _104
REMARK   38  A    between atoms: _104  and  _105
REMARK   39  A    between atoms: _104  and  _107
REMARK   40  A    between atoms: _107  and  _108
REMARK   41  A    between atoms: _108  and  _109
REMARK   42  A    between atoms: _112  and  _114
REMARK   43  A    between atoms: _114  and  _115
REMARK   44  A    between atoms: _114  and  _117
REMARK   45  A    between atoms: _117  and  _118
REMARK   46  A    between atoms: _121  and  _123
REMARK   47  A    between atoms: _123  and  _124
REMARK   48  A    between atoms: _123  and  _126
REMARK   49  A    between atoms: _129  and  _131
REMARK   50  A    between atoms: _131  and  _132
REMARK   51  A    between atoms: _131  and  _134
REMARK   52  A    between atoms: _134  and  _135
REMARK   53  A    between atoms: _138  and  _140
REMARK   54  A    between atoms: _140  and  _141
REMARK   55  A    between atoms: _143  and  _145
REMARK   56  A    between atoms: _145  and  _146
REMARK   57  A    between atoms: _145  and  _148
REMARK   58  A    between atoms: _148  and  _149
REMARK   59  A    between atoms: _149  and  _150
REMARK   60  A    between atoms: _155  and  _157
REMARK   61  A    between atoms: _157  and  _158
REMARK   62  A    between atoms: _157  and  _160
REMARK   63  A    between atoms: _160  and  _161
REMARK   64  A    between atoms: _161  and  _162
REMARK   65  A    between atoms: _167  and  _169
REMARK   66  A    between atoms: _169  and  _170
REMARK   67  A    between atoms: _169  and  _172
REMARK   68  A    between atoms: _172  and  _173
REMARK   69  A    between atoms: _173  and  _174
REMARK   70  A    between atoms: _176  and  _178
REMARK   71  A    between atoms: _178  and  _179
REMARK   72  A    between atoms: _178  and  _181
REMARK   73  A    between atoms: _181  and  _182
REMARK   74  A    between atoms: _182  and  _183
REMARK   75  A    between atoms: _183  and  _184
REMARK   76  A    between atoms: _184  and  _185
REMARK   77  A    between atoms: _189  and  _191
REMARK   78  A    between atoms: _191  and  _192
REMARK   79  A    between atoms: _194  and  _196
REMARK   80  A    between atoms: _196  and  _197
REMARK   81  A    between atoms: _196  and  _199
REMARK   82  A    between atoms: _199  and  _200
REMARK   83  A    between atoms: _203  and  _205
REMARK   84  A    between atoms: _205  and  _206
REMARK   85  A    between atoms: _208  and  _210
REMARK   86  A    between atoms: _210  and  _211
REMARK   87  A    between atoms: _210  and  _213
REMARK   88  A    between atoms: _213  and  _214
REMARK   89  A    between atoms: _219  and  _221
REMARK   90  A    between atoms: _221  and  _222
REMARK   91  A    between atoms: _225  and  _227
REMARK   92  A    between atoms: _227  and  _228
REMARK   93  A    between atoms: _227  and  _230
REMARK   94  A    between atoms: _230  and  _231
REMARK   95  A    between atoms: _234  and  _236
REMARK   96  A    between atoms: _236  and  _237
REMARK   97  A    between atoms: _236  and  _239
REMARK   98  A    between atoms: _239  and  _240
REMARK   99  A    between atoms: _243  and  _245
REMARK  100  A    between atoms: _245  and  _246
REMARK  101  A    between atoms: _245  and  _248
REMARK  102  A    between atoms: _251  and  _253
REMARK  103  A    between atoms: _253  and  _254
REMARK  104  A    between atoms: _253  and  _256
REMARK  105  A    between atoms: _256  and  _257
REMARK  106  A    between atoms: _260  and  _262
REMARK  107  A    between atoms: _262  and  _263
REMARK  108  A    between atoms: _262  and  _265
REMARK  109  A    between atoms: _265  and  _266
REMARK  110  A    between atoms: _269  and  _271
REMARK  111  A    between atoms: _271  and  _272
REMARK  112  A    between atoms: _275  and  _277
REMARK  113  A    between atoms: _277  and  _278
REMARK  114  A    between atoms: _277  and  _280
REMARK  115  A    between atoms: _280  and  _281
REMARK  116  A    between atoms: _281  and  _282
REMARK  117  A    between atoms: _282  and  MG_647
REMARK  118  A    between atoms: _284  and  _286
REMARK  119  A    between atoms: _286  and  _287
REMARK  120  A    between atoms: _286  and  _289
REMARK  121  A    between atoms: _289  and  _290
REMARK  122  A    between atoms: _293  and  _295
REMARK  123  A    between atoms: _295  and  _296
REMARK  124  A    between atoms: _295  and  _298
REMARK  125  A    between atoms: _298  and  _299
REMARK  126  A    between atoms: _302  and  _304
REMARK  127  A    between atoms: _304  and  _305
REMARK  128  A    between atoms: _304  and  _307
REMARK  129  A    between atoms: _310  and  _312
REMARK  130  A    between atoms: _312  and  _313
REMARK  131  A    between atoms: _316  and  _318
REMARK  132  A    between atoms: _318  and  _319
REMARK  133  A    between atoms: _318  and  _321
REMARK  134  A    between atoms: _321  and  _322
REMARK  135  A    between atoms: _325  and  _327
REMARK  136  A    between atoms: _327  and  _328
REMARK  137  A    between atoms: _327  and  _330
REMARK  138  A    between atoms: _330  and  _331
REMARK  139  A    between atoms: _331  and  _332
REMARK  140  A    between atoms: _335  and  _337
REMARK  141  A    between atoms: _337  and  _338
REMARK  142  A    between atoms: _337  and  _340
REMARK  143  A    between atoms: _340  and  _341
REMARK  144  A    between atoms: _341  and  _342
REMARK  145  A    between atoms: _345  and  _347
REMARK  146  A    between atoms: _347  and  _348
REMARK  147  A    between atoms: _347  and  _350
REMARK  148  A    between atoms: _353  and  _355
REMARK  149  A    between atoms: _355  and  _356
REMARK  150  A    between atoms: _355  and  _358
REMARK  151  A    between atoms: _358  and  _359
REMARK  152  A    between atoms: _361  and  _363
REMARK  153  A    between atoms: _363  and  _364
REMARK  154  A    between atoms: _363  and  _366
REMARK  155  A    between atoms: _366  and  _367
REMARK  156  A    between atoms: _367  and  _368
REMARK  157  A    between atoms: _368  and  _369
REMARK  158  A    between atoms: _369  and  _370
REMARK  159  A    between atoms: _374  and  _376
REMARK  160  A    between atoms: _376  and  _377
REMARK  161  A    between atoms: _376  and  _379
REMARK  162  A    between atoms: _379  and  _380
REMARK  163  A    between atoms: _385  and  _386
REMARK  164  A    between atoms: _388  and  _390
REMARK  165  A    between atoms: _390  and  _391
REMARK  166  A    between atoms: _393  and  _395
REMARK  167  A    between atoms: _395  and  _396
REMARK  168  A    between atoms: _395  and  _398
REMARK  169  A    between atoms: _401  and  _403
REMARK  170  A    between atoms: _403  and  _404
REMARK  171  A    between atoms: _403  and  _406
REMARK  172  A    between atoms: _406  and  _407
REMARK  173  A    between atoms: _407  and  _408
REMARK  174  A    between atoms: _410  and  _412
REMARK  175  A    between atoms: _412  and  _413
REMARK  176  A    between atoms: _412  and  _415
REMARK  177  A    between atoms: _418  and  _420
REMARK  178  A    between atoms: _420  and  _421
REMARK  179  A    between atoms: _420  and  _423
REMARK  180  A    between atoms: _423  and  _424
REMARK  181  A    between atoms: _424  and  _425
REMARK  182  A    between atoms: _428  and  _430
REMARK  183  A    between atoms: _430  and  _431
REMARK  184  A    between atoms: _430  and  _433
REMARK  185  A    between atoms: _433  and  _434
REMARK  186  A    between atoms: _434  and  _435
REMARK  187  A    between atoms: _435  and  _436
REMARK  188  A    between atoms: _436  and  _437
REMARK  189  A    between atoms: _441  and  _443
REMARK  190  A    between atoms: _443  and  _444
REMARK  191  A    between atoms: _443  and  _446
REMARK  192  A    between atoms: _446  and  _447
REMARK  193  A    between atoms: _450  and  _452
REMARK  194  A    between atoms: _452  and  _453
REMARK  195  A    between atoms: _456  and  _458
REMARK  196  A    between atoms: _458  and  _459
REMARK  197  A    between atoms: _458  and  _461
REMARK  198  A    between atoms: _464  and  _466
REMARK  199  A    between atoms: _466  and  _467
REMARK  200  A    between atoms: _466  and  _469
REMARK  201  A    between atoms: _469  and  _470
REMARK  202  A    between atoms: _473  and  _475
REMARK  203  A    between atoms: _475  and  _476
REMARK  204  A    between atoms: _478  and  _480
REMARK  205  A    between atoms: _480  and  _481
REMARK  206  A    between atoms: _480  and  _483
REMARK  207  A    between atoms: _483  and  _484
REMARK  208  A    between atoms: _484  and  _485
REMARK  209  A    between atoms: _485  and  _486
REMARK  210  A    between atoms: _495  and  _497
REMARK  211  A    between atoms: _497  and  _498
REMARK  212  A    between atoms: _497  and  _500
REMARK  213  A    between atoms: _500  and  _501
REMARK  214  A    between atoms: _506  and  _507
REMARK  215  A    between atoms: _509  and  _511
REMARK  216  A    between atoms: _511  and  _512
REMARK  217  A    between atoms: _511  and  _514
REMARK  218  A    between atoms: _514  and  _515
REMARK  219  A    between atoms: _520  and  _522
REMARK  220  A    between atoms: _522  and  _523
REMARK  221  A    between atoms: _522  and  _525
REMARK  222  A    between atoms: _525  and  _526
REMARK  223  A    between atoms: _526  and  _527
REMARK  224  A    between atoms: _530  and  _532
REMARK  225  A    between atoms: _532  and  _533
REMARK  226  A    between atoms: _532  and  _535
REMARK  227  A    between atoms: _535  and  _536
REMARK  228  A    between atoms: _539  and  _541
REMARK  229  A    between atoms: _541  and  _542
REMARK  230  A    between atoms: _541  and  _544
REMARK  231  A    between atoms: _544  and  _545
REMARK  232  A    between atoms: _545  and  _546
REMARK  233  A    between atoms: _551  and  _553
REMARK  234  A    between atoms: _553  and  _554
REMARK  235  A    between atoms: _553  and  _556
REMARK  236  A    between atoms: _556  and  _557
REMARK  237  A    between atoms: _560  and  _562
REMARK  238  A    between atoms: _562  and  _563
REMARK  239  A    between atoms: _562  and  _565
REMARK  240  A    between atoms: _565  and  _566
REMARK  241  A    between atoms: _569  and  _571
REMARK  242  A    between atoms: _571  and  _572
REMARK  243  A    between atoms: _571  and  _574
REMARK  244  A    between atoms: _574  and  _575
REMARK  245  A    between atoms: _578  and  _580
REMARK  246  A    between atoms: _580  and  _581
REMARK  247  A    between atoms: _580  and  _583
REMARK  248  A    between atoms: _583  and  _584
REMARK  249  A    between atoms: _587  and  _589
REMARK  250  A    between atoms: _589  and  _590
REMARK  251  A    between atoms: _589  and  _592
REMARK  252  A    between atoms: _592  and  _593
REMARK  253  A    between atoms: _593  and  _594
REMARK  254  A    between atoms: _594  and  _595
REMARK  255  A    between atoms: _604  and  _606
REMARK  256  A    between atoms: _606  and  _607
REMARK  257  A    between atoms: _606  and  _609
REMARK  258  A    between atoms: _609  and  _610
REMARK  259  A    between atoms: _615  and  _616
REMARK  260  A    between atoms: _618  and  _620
REMARK  261  A    between atoms: _620  and  _621
REMARK  262  A    between atoms: _620  and  _623
REMARK  263  A    between atoms: _623  and  _624
REMARK  264  A    between atoms: _627  and  _629
REMARK  265  A    between atoms: _629  and  _630
REMARK  266  A    between atoms: _629  and  _632
REMARK  267  A    between atoms: _634  and  _636
REMARK  268  A    between atoms: _636  and  _637
REMARK  269  A    between atoms: _639  and  _641
REMARK  270  A    between atoms: _641  and  _642
REMARK  271  A    between atoms: _641  and  _644
REMARK  272  A    between atoms: _644  and  _645
REMARK                            x       y       z     vdW  Elec       q    Type
REMARK                         _______ _______ _______ _____ _____    ______ ____
ROOT
ATOM      1  O   HOH     1      58.536  48.295  55.978  0.00  0.00    +0.000 OA
ENDROOT
TORSDOF 0
REMARK  Name = ../refined-set-2016/3juk/3juk_pocket.pdb
REMARK  272 active torsions:
REMARK  status: ('A' for Active; 'I' for Inactive)
REMARK    1  A    between atoms: _1  and  _3
REMARK    2  A    between atoms: _3  and  _4
REMARK    3  A    between atoms: _3  and  _6
REMARK    4  A    between atoms: _6  and  _7
REMARK    5  A    between atoms: _14  and  _15
REMARK    6  A    between atoms: _20  and  _22
REMARK    7  A    between atoms: _22  and  _23
REMARK    8  A    between atoms: _26  and  _28
REMARK    9  A    between atoms: _28  and  _29
REMARK   10  A    between atoms: _32  and  _34
REMARK   11  A    between atoms: _34  and  _35
REMARK   12  A    between atoms: _37  and  _39
REMARK   13  A    between atoms: _39  and  _40
REMARK   14  A    between atoms: _39  and  _42
REMARK   15  A    between atoms: _42  and  _43
REMARK   16  A    between atoms: _48  and  _49
REMARK   17  A    between atoms: _51  and  _53
REMARK   18  A    between atoms: _53  and  _54
REMARK   19  A    between atoms: _56  and  _58
REMARK   20  A    between atoms: _58  and  _59
REMARK   21  A    between atoms: _58  and  _61
REMARK   22  A    between atoms: _61  and  _62
REMARK   23  A    between atoms: _65  and  _67
REMARK   24  A    between atoms: _67  and  _68
REMARK   25  A    between atoms: _67  and  _70
REMARK   26  A    between atoms: _70  and  _71
REMARK   27  A    between atoms: _71  and  _72
REMARK   28  A    between atoms: _72  and  _73
REMARK   29  A    between atoms: _83  and  _84
REMARK   30  A    between atoms: _89  and  _91
REMARK   31  A    between atoms: _91  and  _92
REMARK   32  A    between atoms: _91  and  _94
REMARK   33  A    between atoms: _94  and  _95
REMARK   34  A    between atoms: _95  and  _96
REMARK   35  A    between atoms: _96  and  _97
REMARK   36  A    between atoms: _97  and  _98
REMARK   37  A    between atoms: _102  and  _104
REMARK   38  A    between atoms: _104  and  _105
REMARK   39  A    between atoms: _104  and  _107
REMARK   40  A    between atoms: _107  and  _108
REMARK   41  A    between atoms: _108  and  _109
REMARK   42  A    between atoms: _112  and  _114
REMARK   43  A    between atoms: _114  and  _115
REMARK   44  A    between atoms: _114  and  _117
REMARK   45  A    between atoms: _117  and  _118
REMARK   46  A    between atoms: _121  and  _123
REMARK   47  A    between atoms: _123  and  _124
REMARK   48  A    between atoms: _123  and  _126
REMARK   49  A    between atoms: _129  and  _131
REMARK   50  A    between atoms: _131  and  _132
REMARK   51  A    between atoms: _131  and  _134
REMARK   52  A    between atoms: _134  and  _135
REMARK   53  A    between atoms: _138  and  _140
REMARK   54  A    between atoms: _140  and  _141
REMARK   55  A    between atoms: _143  and  _145
REMARK   56  A    between atoms: _145  and  _146
REMARK   57  A    between atoms: _145  and  _148
REMARK   58  A    between atoms: _148  and  _149
REMARK   59  A    between atoms: _149  and  _150
REMARK   60  A    between atoms: _155  and  _157
REMARK   61  A    between atoms: _157  and  _158
REMARK   62  A    between atoms: _157  and  _160
REMARK   63  A    between atoms: _160  and  _161
REMARK   64  A    between atoms: _161  and  _162
REMARK   65  A    between atoms: _167  and  _169
REMARK   66  A    between atoms: _169  and  _170
REMARK   67  A    between atoms: _169  and  _172
REMARK   68  A    between atoms: _172  and  _173
REMARK   69  A    between atoms: _173  and  _174
REMARK   70  A    between atoms: _176  and  _178
REMARK   71  A    between atoms: _178  and  _179
REMARK   72  A    between atoms: _178  and  _181
REMARK   73  A    between atoms: _181  and  _182
REMARK   74  A    between atoms: _182  and  _183
REMARK   75  A    between atoms: _183  and  _184
REMARK   76  A    between atoms: _184  and  _185
REMARK   77  A    between atoms: _189  and  _191
REMARK   78  A    between atoms: _191  and  _192
REMARK   79  A    between atoms: _194  and  _196
REMARK   80  A    between atoms: _196  and  _197
REMARK   81  A    between atoms: _196  and  _199
REMARK   82  A    between atoms: _199  and  _200
REMARK   83  A    between atoms: _203  and  _205
REMARK   84  A    between atoms: _205  and  _206
REMARK   85  A    between atoms: _208  and  _210
REMARK   86  A    between atoms: _210  and  _211
REMARK   87  A    between atoms: _210  and  _213
REMARK   88  A    between atoms: _213  and  _214
REMARK   89  A    between atoms: _219  and  _221
REMARK   90  A    between atoms: _221  and  _222
REMARK   91  A    between atoms: _225  and  _227
REMARK   92  A    between atoms: _227  and  _228
REMARK   93  A    between atoms: _227  and  _230
REMARK   94  A    between atoms: _230  and  _231
REMARK   95  A    between atoms: _234  and  _236
REMARK   96  A    between atoms: _236  and  _237
REMARK   97  A    between atoms: _236  and  _239
REMARK   98  A    between atoms: _239  and  _240
REMARK   99  A    between atoms: _243  and  _245
REMARK  100  A    between atoms: _245  and  _246
REMARK  101  A    between atoms: _245  and  _248
REMARK  102  A    between atoms: _251  and  _253
REMARK  103  A    between atoms: _253  and  _254
REMARK  104  A    between atoms: _253  and  _256
REMARK  105  A    between atoms: _256  and  _257
REMARK  106  A    between atoms: _260  and  _262
REMARK  107  A    between atoms: _262  and  _263
REMARK  108  A    between atoms: _262  and  _265
REMARK  109  A    between atoms: _265  and  _266
REMARK  110  A    between atoms: _269  and  _271
REMARK  111  A    between atoms: _271  and  _272
REMARK  112  A    between atoms: _275  and  _277
REMARK  113  A    between atoms: _277  and  _278
REMARK  114  A    between atoms: _277  and  _280
REMARK  115  A    between atoms: _280  and  _281
REMARK  116  A    between atoms: _281  and  _282
REMARK  117  A    between atoms: _282  and  MG_647
REMARK  118  A    between atoms: _284  and  _286
REMARK  119  A    between atoms: _286  and  _287
REMARK  120  A    between atoms: _286  and  _289
REMARK  121  A    between atoms: _289  and  _290
REMARK  122  A    between atoms: _293  and  _295
REMARK  123  A    between atoms: _295  and  _296
REMARK  124  A    between atoms: _295  and  _298
REMARK  125  A    between atoms: _298  and  _299
REMARK  126  A    between atoms: _302  and  _304
REMARK  127  A    between atoms: _304  and  _305
REMARK  128  A    between atoms: _304  and  _307
REMARK  129  A    between atoms: _310  and  _312
REMARK  130  A    between atoms: _312  and  _313
REMARK  131  A    between atoms: _316  and  _318
REMARK  132  A    between atoms: _318  and  _319
REMARK  133  A    between atoms: _318  and  _321
REMARK  134  A    between atoms: _321  and  _322
REMARK  135  A    between atoms: _325  and  _327
REMARK  136  A    between atoms: _327  and  _328
REMARK  137  A    between atoms: _327  and  _330
REMARK  138  A    between atoms: _330  and  _331
REMARK  139  A    between atoms: _331  and  _332
REMARK  140  A    between atoms: _335  and  _337
REMARK  141  A    between atoms: _337  and  _338
REMARK  142  A    between atoms: _337  and  _340
REMARK  143  A    between atoms: _340  and  _341
REMARK  144  A    between atoms: _341  and  _342
REMARK  145  A    between atoms: _345  and  _347
REMARK  146  A    between atoms: _347  and  _348
REMARK  147  A    between atoms: _347  and  _350
REMARK  148  A    between atoms: _353  and  _355
REMARK  149  A    between atoms: _355  and  _356
REMARK  150  A    between atoms: _355  and  _358
REMARK  151  A    between atoms: _358  and  _359
REMARK  152  A    between atoms: _361  and  _363
REMARK  153  A    between atoms: _363  and  _364
REMARK  154  A    between atoms: _363  and  _366
REMARK  155  A    between atoms: _366  and  _367
REMARK  156  A    between atoms: _367  and  _368
REMARK  157  A    between atoms: _368  and  _369
REMARK  158  A    between atoms: _369  and  _370
REMARK  159  A    between atoms: _374  and  _376
REMARK  160  A    between atoms: _376  and  _377
REMARK  161  A    between atoms: _376  and  _379
REMARK  162  A    between atoms: _379  and  _380
REMARK  163  A    between atoms: _385  and  _386
REMARK  164  A    between atoms: _388  and  _390
REMARK  165  A    between atoms: _390  and  _391
REMARK  166  A    between atoms: _393  and  _395
REMARK  167  A    between atoms: _395  and  _396
REMARK  168  A    between atoms: _395  and  _398
REMARK  169  A    between atoms: _401  and  _403
REMARK  170  A    between atoms: _403  and  _404
REMARK  171  A    between atoms: _403  and  _406
REMARK  172  A    between atoms: _406  and  _407
REMARK  173  A    between atoms: _407  and  _408
REMARK  174  A    between atoms: _410  and  _412
REMARK  175  A    between atoms: _412  and  _413
REMARK  176  A    between atoms: _412  and  _415
REMARK  177  A    between atoms: _418  and  _420
REMARK  178  A    between atoms: _420  and  _421
REMARK  179  A    between atoms: _420  and  _423
REMARK  180  A    between atoms: _423  and  _424
REMARK  181  A    between atoms: _424  and  _425
REMARK  182  A    between atoms: _428  and  _430
REMARK  183  A    between atoms: _430  and  _431
REMARK  184  A    between atoms: _430  and  _433
REMARK  185  A    between atoms: _433  and  _434
REMARK  186  A    between atoms: _434  and  _435
REMARK  187  A    between atoms: _435  and  _436
REMARK  188  A    between atoms: _436  and  _437
REMARK  189  A    between atoms: _441  and  _443
REMARK  190  A    between atoms: _443  and  _444
REMARK  191  A    between atoms: _443  and  _446
REMARK  192  A    between atoms: _446  and  _447
REMARK  193  A    between atoms: _450  and  _452
REMARK  194  A    between atoms: _452  and  _453
REMARK  195  A    between atoms: _456  and  _458
REMARK  196  A    between atoms: _458  and  _459
REMARK  197  A    between atoms: _458  and  _461
REMARK  198  A    between atoms: _464  and  _466
REMARK  199  A    between atoms: _466  and  _467
REMARK  200  A    between atoms: _466  and  _469
REMARK  201  A    between atoms: _469  and  _470
REMARK  202  A    between atoms: _473  and  _475
REMARK  203  A    between atoms: _475  and  _476
REMARK  204  A    between atoms: _478  and  _480
REMARK  205  A    between atoms: _480  and  _481
REMARK  206  A    between atoms: _480  and  _483
REMARK  207  A    between atoms: _483  and  _484
REMARK  208  A    between atoms: _484  and  _485
REMARK  209  A    between atoms: _485  and  _486
REMARK  210  A    between atoms: _495  and  _497
REMARK  211  A    between atoms: _497  and  _498
REMARK  212  A    between atoms: _497  and  _500
REMARK  213  A    between atoms: _500  and  _501
REMARK  214  A    between atoms: _506  and  _507
REMARK  215  A    between atoms: _509  and  _511
REMARK  216  A    between atoms: _511  and  _512
REMARK  217  A    between atoms: _511  and  _514
REMARK  218  A    between atoms: _514  and  _515
REMARK  219  A    between atoms: _520  and  _522
REMARK  220  A    between atoms: _522  and  _523
REMARK  221  A    between atoms: _522  and  _525
REMARK  222  A    between atoms: _525  and  _526
REMARK  223  A    between atoms: _526  and  _527
REMARK  224  A    between atoms: _530  and  _532
REMARK  225  A    between atoms: _532  and  _533
REMARK  226  A    between atoms: _532  and  _535
REMARK  227  A    between atoms: _535  and  _536
REMARK  228  A    between atoms: _539  and  _541
REMARK  229  A    between atoms: _541  and  _542
REMARK  230  A    between atoms: _541  and  _544
REMARK  231  A    between atoms: _544  and  _545
REMARK  232  A    between atoms: _545  and  _546
REMARK  233  A    between atoms: _551  and  _553
REMARK  234  A    between atoms: _553  and  _554
REMARK  235  A    between atoms: _553  and  _556
REMARK  236  A    between atoms: _556  and  _557
REMARK  237  A    between atoms: _560  and  _562
REMARK  238  A    between atoms: _562  and  _563
REMARK  239  A    between atoms: _562  and  _565
REMARK  240  A    between atoms: _565  and  _566
REMARK  241  A    between atoms: _569  and  _571
REMARK  242  A    between atoms: _571  and  _572
REMARK  243  A    between atoms: _571  and  _574
REMARK  244  A    between atoms: _574  and  _575
REMARK  245  A    between atoms: _578  and  _580
REMARK  246  A    between atoms: _580  and  _581
REMARK  247  A    between atoms: _580  and  _583
REMARK  248  A    between atoms: _583  and  _584
REMARK  249  A    between atoms: _587  and  _589
REMARK  250  A    between atoms: _589  and  _590
REMARK  251  A    between atoms: _589  and  _592
REMARK  252  A    between atoms: _592  and  _593
REMARK  253  A    between atoms: _593  and  _594
REMARK  254  A    between atoms: _594  and  _595
REMARK  255  A    between atoms: _604  and  _606
REMARK  256  A    between atoms: _606  and  _607
REMARK  257  A    between atoms: _606  and  _609
REMARK  258  A    between atoms: _609  and  _610
REMARK  259  A    between atoms: _615  and  _616
REMARK  260  A    between atoms: _618  and  _620
REMARK  261  A    between atoms: _620  and  _621
REMARK  262  A    between atoms: _620  and  _623
REMARK  263  A    between atoms: _623  and  _624
REMARK  264  A    between atoms: _627  and  _629
REMARK  265  A    between atoms: _629  and  _630
REMARK  266  A    between atoms: _629  and  _632
REMARK  267  A    between atoms: _634  and  _636
REMARK  268  A    between atoms: _636  and  _637
REMARK  269  A    between atoms: _639  and  _641
REMARK  270  A    between atoms: _641  and  _642
REMARK  271  A    between atoms: _641  and  _644
REMARK  272  A    between atoms: _644  and  _645
REMARK                            x       y       z     vdW  Elec       q    Type
REMARK                         _______ _______ _______ _____ _____    ______ ____
ROOT
ATOM      1  O   HOH     1      62.184  47.276  55.453  0.00  0.00    +0.000 OA
ENDROOT
TORSDOF 0
REMARK  Name = ../refined-set-2016/3juk/3juk_pocket.pdb
REMARK  272 active torsions:
REMARK  status: ('A' for Active; 'I' for Inactive)
REMARK    1  A    between atoms: _1  and  _3
REMARK    2  A    between atoms: _3  and  _4
REMARK    3  A    between atoms: _3  and  _6
REMARK    4  A    between atoms: _6  and  _7
REMARK    5  A    between atoms: _14  and  _15
REMARK    6  A    between atoms: _20  and  _22
REMARK    7  A    between atoms: _22  and  _23
REMARK    8  A    between atoms: _26  and  _28
REMARK    9  A    between atoms: _28  and  _29
REMARK   10  A    between atoms: _32  and  _34
REMARK   11  A    between atoms: _34  and  _35
REMARK   12  A    between atoms: _37  and  _39
REMARK   13  A    between atoms: _39  and  _40
REMARK   14  A    between atoms: _39  and  _42
REMARK   15  A    between atoms: _42  and  _43
REMARK   16  A    between atoms: _48  and  _49
REMARK   17  A    between atoms: _51  and  _53
REMARK   18  A    between atoms: _53  and  _54
REMARK   19  A    between atoms: _56  and  _58
REMARK   20  A    between atoms: _58  and  _59
REMARK   21  A    between atoms: _58  and  _61
REMARK   22  A    between atoms: _61  and  _62
REMARK   23  A    between atoms: _65  and  _67
REMARK   24  A    between atoms: _67  and  _68
REMARK   25  A    between atoms: _67  and  _70
REMARK   26  A    between atoms: _70  and  _71
REMARK   27  A    between atoms: _71  and  _72
REMARK   28  A    between atoms: _72  and  _73
REMARK   29  A    between atoms: _83  and  _84
REMARK   30  A    between atoms: _89  and  _91
REMARK   31  A    between atoms: _91  and  _92
REMARK   32  A    between atoms: _91  and  _94
REMARK   33  A    between atoms: _94  and  _95
REMARK   34  A    between atoms: _95  and  _96
REMARK   35  A    between atoms: _96  and  _97
REMARK   36  A    between atoms: _97  and  _98
REMARK   37  A    between atoms: _102  and  _104
REMARK   38  A    between atoms: _104  and  _105
REMARK   39  A    between atoms: _104  and  _107
REMARK   40  A    between atoms: _107  and  _108
REMARK   41  A    between atoms: _108  and  _109
REMARK   42  A    between atoms: _112  and  _114
REMARK   43  A    between atoms: _114  and  _115
REMARK   44  A    between atoms: _114  and  _117
REMARK   45  A    between atoms: _117  and  _118
REMARK   46  A    between atoms: _121  and  _123
REMARK   47  A    between atoms: _123  and  _124
REMARK   48  A    between atoms: _123  and  _126
REMARK   49  A    between atoms: _129  and  _131
REMARK   50  A    between atoms: _131  and  _132
REMARK   51  A    between atoms: _131  and  _134
REMARK   52  A    between atoms: _134  and  _135
REMARK   53  A    between atoms: _138  and  _140
REMARK   54  A    between atoms: _140  and  _141
REMARK   55  A    between atoms: _143  and  _145
REMARK   56  A    between atoms: _145  and  _146
REMARK   57  A    between atoms: _145  and  _148
REMARK   58  A    between atoms: _148  and  _149
REMARK   59  A    between atoms: _149  and  _150
REMARK   60  A    between atoms: _155  and  _157
REMARK   61  A    between atoms: _157  and  _158
REMARK   62  A    between atoms: _157  and  _160
REMARK   63  A    between atoms: _160  and  _161
REMARK   64  A    between atoms: _161  and  _162
REMARK   65  A    between atoms: _167  and  _169
REMARK   66  A    between atoms: _169  and  _170
REMARK   67  A    between atoms: _169  and  _172
REMARK   68  A    between atoms: _172  and  _173
REMARK   69  A    between atoms: _173  and  _174
REMARK   70  A    between atoms: _176  and  _178
REMARK   71  A    between atoms: _178  and  _179
REMARK   72  A    between atoms: _178  and  _181
REMARK   73  A    between atoms: _181  and  _182
REMARK   74  A    between atoms: _182  and  _183
REMARK   75  A    between atoms: _183  and  _184
REMARK   76  A    between atoms: _184  and  _185
REMARK   77  A    between atoms: _189  and  _191
REMARK   78  A    between atoms: _191  and  _192
REMARK   79  A    between atoms: _194  and  _196
REMARK   80  A    between atoms: _196  and  _197
REMARK   81  A    between atoms: _196  and  _199
REMARK   82  A    between atoms: _199  and  _200
REMARK   83  A    between atoms: _203  and  _205
REMARK   84  A    between atoms: _205  and  _206
REMARK   85  A    between atoms: _208  and  _210
REMARK   86  A    between atoms: _210  and  _211
REMARK   87  A    between atoms: _210  and  _213
REMARK   88  A    between atoms: _213  and  _214
REMARK   89  A    between atoms: _219  and  _221
REMARK   90  A    between atoms: _221  and  _222
REMARK   91  A    between atoms: _225  and  _227
REMARK   92  A    between atoms: _227  and  _228
REMARK   93  A    between atoms: _227  and  _230
REMARK   94  A    between atoms: _230  and  _231
REMARK   95  A    between atoms: _234  and  _236
REMARK   96  A    between atoms: _236  and  _237
REMARK   97  A    between atoms: _236  and  _239
REMARK   98  A    between atoms: _239  and  _240
REMARK   99  A    between atoms: _243  and  _245
REMARK  100  A    between atoms: _245  and  _246
REMARK  101  A    between atoms: _245  and  _248
REMARK  102  A    between atoms: _251  and  _253
REMARK  103  A    between atoms: _253  and  _254
REMARK  104  A    between atoms: _253  and  _256
REMARK  105  A    between atoms: _256  and  _257
REMARK  106  A    between atoms: _260  and  _262
REMARK  107  A    between atoms: _262  and  _263
REMARK  108  A    between atoms: _262  and  _265
REMARK  109  A    between atoms: _265  and  _266
REMARK  110  A    between atoms: _269  and  _271
REMARK  111  A    between atoms: _271  and  _272
REMARK  112  A    between atoms: _275  and  _277
REMARK  113  A    between atoms: _277  and  _278
REMARK  114  A    between atoms: _277  and  _280
REMARK  115  A    between atoms: _280  and  _281
REMARK  116  A    between atoms: _281  and  _282
REMARK  117  A    between atoms: _282  and  MG_647
REMARK  118  A    between atoms: _284  and  _286
REMARK  119  A    between atoms: _286  and  _287
REMARK  120  A    between atoms: _286  and  _289
REMARK  121  A    between atoms: _289  and  _290
REMARK  122  A    between atoms: _293  and  _295
REMARK  123  A    between atoms: _295  and  _296
REMARK  124  A    between atoms: _295  and  _298
REMARK  125  A    between atoms: _298  and  _299
REMARK  126  A    between atoms: _302  and  _304
REMARK  127  A    between atoms: _304  and  _305
REMARK  128  A    between atoms: _304  and  _307
REMARK  129  A    between atoms: _310  and  _312
REMARK  130  A    between atoms: _312  and  _313
REMARK  131  A    between atoms: _316  and  _318
REMARK  132  A    between atoms: _318  and  _319
REMARK  133  A    between atoms: _318  and  _321
REMARK  134  A    between atoms: _321  and  _322
REMARK  135  A    between atoms: _325  and  _327
REMARK  136  A    between atoms: _327  and  _328
REMARK  137  A    between atoms: _327  and  _330
REMARK  138  A    between atoms: _330  and  _331
REMARK  139  A    between atoms: _331  and  _332
REMARK  140  A    between atoms: _335  and  _337
REMARK  141  A    between atoms: _337  and  _338
REMARK  142  A    between atoms: _337  and  _340
REMARK  143  A    between atoms: _340  and  _341
REMARK  144  A    between atoms: _341  and  _342
REMARK  145  A    between atoms: _345  and  _347
REMARK  146  A    between atoms: _347  and  _348
REMARK  147  A    between atoms: _347  and  _350
REMARK  148  A    between atoms: _353  and  _355
REMARK  149  A    between atoms: _355  and  _356
REMARK  150  A    between atoms: _355  and  _358
REMARK  151  A    between atoms: _358  and  _359
REMARK  152  A    between atoms: _361  and  _363
REMARK  153  A    between atoms: _363  and  _364
REMARK  154  A    between atoms: _363  and  _366
REMARK  155  A    between atoms: _366  and  _367
REMARK  156  A    between atoms: _367  and  _368
REMARK  157  A    between atoms: _368  and  _369
REMARK  158  A    between atoms: _369  and  _370
REMARK  159  A    between atoms: _374  and  _376
REMARK  160  A    between atoms: _376  and  _377
REMARK  161  A    between atoms: _376  and  _379
REMARK  162  A    between atoms: _379  and  _380
REMARK  163  A    between atoms: _385  and  _386
REMARK  164  A    between atoms: _388  and  _390
REMARK  165  A    between atoms: _390  and  _391
REMARK  166  A    between atoms: _393  and  _395
REMARK  167  A    between atoms: _395  and  _396
REMARK  168  A    between atoms: _395  and  _398
REMARK  169  A    between atoms: _401  and  _403
REMARK  170  A    between atoms: _403  and  _404
REMARK  171  A    between atoms: _403  and  _406
REMARK  172  A    between atoms: _406  and  _407
REMARK  173  A    between atoms: _407  and  _408
REMARK  174  A    between atoms: _410  and  _412
REMARK  175  A    between atoms: _412  and  _413
REMARK  176  A    between atoms: _412  and  _415
REMARK  177  A    between atoms: _418  and  _420
REMARK  178  A    between atoms: _420  and  _421
REMARK  179  A    between atoms: _420  and  _423
REMARK  180  A    between atoms: _423  and  _424
REMARK  181  A    between atoms: _424  and  _425
REMARK  182  A    between atoms: _428  and  _430
REMARK  183  A    between atoms: _430  and  _431
REMARK  184  A    between atoms: _430  and  _433
REMARK  185  A    between atoms: _433  and  _434
REMARK  186  A    between atoms: _434  and  _435
REMARK  187  A    between atoms: _435  and  _436
REMARK  188  A    between atoms: _436  and  _437
REMARK  189  A    between atoms: _441  and  _443
REMARK  190  A    between atoms: _443  and  _444
REMARK  191  A    between atoms: _443  and  _446
REMARK  192  A    between atoms: _446  and  _447
REMARK  193  A    between atoms: _450  and  _452
REMARK  194  A    between atoms: _452  and  _453
REMARK  195  A    between atoms: _456  and  _458
REMARK  196  A    between atoms: _458  and  _459
REMARK  197  A    between atoms: _458  and  _461
REMARK  198  A    between atoms: _464  and  _466
REMARK  199  A    between atoms: _466  and  _467
REMARK  200  A    between atoms: _466  and  _469
REMARK  201  A    between atoms: _469  and  _470
REMARK  202  A    between atoms: _473  and  _475
REMARK  203  A    between atoms: _475  and  _476
REMARK  204  A    between atoms: _478  and  _480
REMARK  205  A    between atoms: _480  and  _481
REMARK  206  A    between atoms: _480  and  _483
REMARK  207  A    between atoms: _483  and  _484
REMARK  208  A    between atoms: _484  and  _485
REMARK  209  A    between atoms: _485  and  _486
REMARK  210  A    between atoms: _495  and  _497
REMARK  211  A    between atoms: _497  and  _498
REMARK  212  A    between atoms: _497  and  _500
REMARK  213  A    between atoms: _500  and  _501
REMARK  214  A    between atoms: _506  and  _507
REMARK  215  A    between atoms: _509  and  _511
REMARK  216  A    between atoms: _511  and  _512
REMARK  217  A    between atoms: _511  and  _514
REMARK  218  A    between atoms: _514  and  _515
REMARK  219  A    between atoms: _520  and  _522
REMARK  220  A    between atoms: _522  and  _523
REMARK  221  A    between atoms: _522  and  _525
REMARK  222  A    between atoms: _525  and  _526
REMARK  223  A    between atoms: _526  and  _527
REMARK  224  A    between atoms: _530  and  _532
REMARK  225  A    between atoms: _532  and  _533
REMARK  226  A    between atoms: _532  and  _535
REMARK  227  A    between atoms: _535  and  _536
REMARK  228  A    between atoms: _539  and  _541
REMARK  229  A    between atoms: _541  and  _542
REMARK  230  A    between atoms: _541  and  _544
REMARK  231  A    between atoms: _544  and  _545
REMARK  232  A    between atoms: _545  and  _546
REMARK  233  A    between atoms: _551  and  _553
REMARK  234  A    between atoms: _553  and  _554
REMARK  235  A    between atoms: _553  and  _556
REMARK  236  A    between atoms: _556  and  _557
REMARK  237  A    between atoms: _560  and  _562
REMARK  238  A    between atoms: _562  and  _563
REMARK  239  A    between atoms: _562  and  _565
REMARK  240  A    between atoms: _565  and  _566
REMARK  241  A    between atoms: _569  and  _571
REMARK  242  A    between atoms: _571  and  _572
REMARK  243  A    between atoms: _571  and  _574
REMARK  244  A    between atoms: _574  and  _575
REMARK  245  A    between atoms: _578  and  _580
REMARK  246  A    between atoms: _580  and  _581
REMARK  247  A    between atoms: _580  and  _583
REMARK  248  A    between atoms: _583  and  _584
REMARK  249  A    between atoms: _587  and  _589
REMARK  250  A    between atoms: _589  and  _590
REMARK  251  A    between atoms: _589  and  _592
REMARK  252  A    between atoms: _592  and  _593
REMARK  253  A    between atoms: _593  and  _594
REMARK  254  A    between atoms: _594  and  _595
REMARK  255  A    between atoms: _604  and  _606
REMARK  256  A    between atoms: _606  and  _607
REMARK  257  A    between atoms: _606  and  _609
REMARK  258  A    between atoms: _609  and  _610
REMARK  259  A    between atoms: _615  and  _616
REMARK  260  A    between atoms: _618  and  _620
REMARK  261  A    between atoms: _620  and  _621
REMARK  262  A    between atoms: _620  and  _623
REMARK  263  A    between atoms: _623  and  _624
REMARK  264  A    between atoms: _627  and  _629
REMARK  265  A    between atoms: _629  and  _630
REMARK  266  A    between atoms: _629  and  _632
REMARK  267  A    between atoms: _634  and  _636
REMARK  268  A    between atoms: _636  and  _637
REMARK  269  A    between atoms: _639  and  _641
REMARK  270  A    between atoms: _641  and  _642
REMARK  271  A    between atoms: _641  and  _644
REMARK  272  A    between atoms: _644  and  _645
REMARK                            x       y       z     vdW  Elec       q    Type
REMARK                         _______ _______ _______ _____ _____    ______ ____
ROOT
ATOM      1  O   HOH     1      57.689  45.165  52.680  0.00  0.00    +0.000 OA
ENDROOT
TORSDOF 0
REMARK  Name = ../refined-set-2016/3juk/3juk_pocket.pdb
REMARK  272 active torsions:
REMARK  status: ('A' for Active; 'I' for Inactive)
REMARK    1  A    between atoms: _1  and  _3
REMARK    2  A    between atoms: _3  and  _4
REMARK    3  A    between atoms: _3  and  _6
REMARK    4  A    between atoms: _6  and  _7
REMARK    5  A    between atoms: _14  and  _15
REMARK    6  A    between atoms: _20  and  _22
REMARK    7  A    between atoms: _22  and  _23
REMARK    8  A    between atoms: _26  and  _28
REMARK    9  A    between atoms: _28  and  _29
REMARK   10  A    between atoms: _32  and  _34
REMARK   11  A    between atoms: _34  and  _35
REMARK   12  A    between atoms: _37  and  _39
REMARK   13  A    between atoms: _39  and  _40
REMARK   14  A    between atoms: _39  and  _42
REMARK   15  A    between atoms: _42  and  _43
REMARK   16  A    between atoms: _48  and  _49
REMARK   17  A    between atoms: _51  and  _53
REMARK   18  A    between atoms: _53  and  _54
REMARK   19  A    between atoms: _56  and  _58
REMARK   20  A    between atoms: _58  and  _59
REMARK   21  A    between atoms: _58  and  _61
REMARK   22  A    between atoms: _61  and  _62
REMARK   23  A    between atoms: _65  and  _67
REMARK   24  A    between atoms: _67  and  _68
REMARK   25  A    between atoms: _67  and  _70
REMARK   26  A    between atoms: _70  and  _71
REMARK   27  A    between atoms: _71  and  _72
REMARK   28  A    between atoms: _72  and  _73
REMARK   29  A    between atoms: _83  and  _84
REMARK   30  A    between atoms: _89  and  _91
REMARK   31  A    between atoms: _91  and  _92
REMARK   32  A    between atoms: _91  and  _94
REMARK   33  A    between atoms: _94  and  _95
REMARK   34  A    between atoms: _95  and  _96
REMARK   35  A    between atoms: _96  and  _97
REMARK   36  A    between atoms: _97  and  _98
REMARK   37  A    between atoms: _102  and  _104
REMARK   38  A    between atoms: _104  and  _105
REMARK   39  A    between atoms: _104  and  _107
REMARK   40  A    between atoms: _107  and  _108
REMARK   41  A    between atoms: _108  and  _109
REMARK   42  A    between atoms: _112  and  _114
REMARK   43  A    between atoms: _114  and  _115
REMARK   44  A    between atoms: _114  and  _117
REMARK   45  A    between atoms: _117  and  _118
REMARK   46  A    between atoms: _121  and  _123
REMARK   47  A    between atoms: _123  and  _124
REMARK   48  A    between atoms: _123  and  _126
REMARK   49  A    between atoms: _129  and  _131
REMARK   50  A    between atoms: _131  and  _132
REMARK   51  A    between atoms: _131  and  _134
REMARK   52  A    between atoms: _134  and  _135
REMARK   53  A    between atoms: _138  and  _140
REMARK   54  A    between atoms: _140  and  _141
REMARK   55  A    between atoms: _143  and  _145
REMARK   56  A    between atoms: _145  and  _146
REMARK   57  A    between atoms: _145  and  _148
REMARK   58  A    between atoms: _148  and  _149
REMARK   59  A    between atoms: _149  and  _150
REMARK   60  A    between atoms: _155  and  _157
REMARK   61  A    between atoms: _157  and  _158
REMARK   62  A    between atoms: _157  and  _160
REMARK   63  A    between atoms: _160  and  _161
REMARK   64  A    between atoms: _161  and  _162
REMARK   65  A    between atoms: _167  and  _169
REMARK   66  A    between atoms: _169  and  _170
REMARK   67  A    between atoms: _169  and  _172
REMARK   68  A    between atoms: _172  and  _173
REMARK   69  A    between atoms: _173  and  _174
REMARK   70  A    between atoms: _176  and  _178
REMARK   71  A    between atoms: _178  and  _179
REMARK   72  A    between atoms: _178  and  _181
REMARK   73  A    between atoms: _181  and  _182
REMARK   74  A    between atoms: _182  and  _183
REMARK   75  A    between atoms: _183  and  _184
REMARK   76  A    between atoms: _184  and  _185
REMARK   77  A    between atoms: _189  and  _191
REMARK   78  A    between atoms: _191  and  _192
REMARK   79  A    between atoms: _194  and  _196
REMARK   80  A    between atoms: _196  and  _197
REMARK   81  A    between atoms: _196  and  _199
REMARK   82  A    between atoms: _199  and  _200
REMARK   83  A    between atoms: _203  and  _205
REMARK   84  A    between atoms: _205  and  _206
REMARK   85  A    between atoms: _208  and  _210
REMARK   86  A    between atoms: _210  and  _211
REMARK   87  A    between atoms: _210  and  _213
REMARK   88  A    between atoms: _213  and  _214
REMARK   89  A    between atoms: _219  and  _221
REMARK   90  A    between atoms: _221  and  _222
REMARK   91  A    between atoms: _225  and  _227
REMARK   92  A    between atoms: _227  and  _228
REMARK   93  A    between atoms: _227  and  _230
REMARK   94  A    between atoms: _230  and  _231
REMARK   95  A    between atoms: _234  and  _236
REMARK   96  A    between atoms: _236  and  _237
REMARK   97  A    between atoms: _236  and  _239
REMARK   98  A    between atoms: _239  and  _240
REMARK   99  A    between atoms: _243  and  _245
REMARK  100  A    between atoms: _245  and  _246
REMARK  101  A    between atoms: _245  and  _248
REMARK  102  A    between atoms: _251  and  _253
REMARK  103  A    between atoms: _253  and  _254
REMARK  104  A    between atoms: _253  and  _256
REMARK  105  A    between atoms: _256  and  _257
REMARK  106  A    between atoms: _260  and  _262
REMARK  107  A    between atoms: _262  and  _263
REMARK  108  A    between atoms: _262  and  _265
REMARK  109  A    between atoms: _265  and  _266
REMARK  110  A    between atoms: _269  and  _271
REMARK  111  A    between atoms: _271  and  _272
REMARK  112  A    between atoms: _275  and  _277
REMARK  113  A    between atoms: _277  and  _278
REMARK  114  A    between atoms: _277  and  _280
REMARK  115  A    between atoms: _280  and  _281
REMARK  116  A    between atoms: _281  and  _282
REMARK  117  A    between atoms: _282  and  MG_647
REMARK  118  A    between atoms: _284  and  _286
REMARK  119  A    between atoms: _286  and  _287
REMARK  120  A    between atoms: _286  and  _289
REMARK  121  A    between atoms: _289  and  _290
REMARK  122  A    between atoms: _293  and  _295
REMARK  123  A    between atoms: _295  and  _296
REMARK  124  A    between atoms: _295  and  _298
REMARK  125  A    between atoms: _298  and  _299
REMARK  126  A    between atoms: _302  and  _304
REMARK  127  A    between atoms: _304  and  _305
REMARK  128  A    between atoms: _304  and  _307
REMARK  129  A    between atoms: _310  and  _312
REMARK  130  A    between atoms: _312  and  _313
REMARK  131  A    between atoms: _316  and  _318
REMARK  132  A    between atoms: _318  and  _319
REMARK  133  A    between atoms: _318  and  _321
REMARK  134  A    between atoms: _321  and  _322
REMARK  135  A    between atoms: _325  and  _327
REMARK  136  A    between atoms: _327  and  _328
REMARK  137  A    between atoms: _327  and  _330
REMARK  138  A    between atoms: _330  and  _331
REMARK  139  A    between atoms: _331  and  _332
REMARK  140  A    between atoms: _335  and  _337
REMARK  141  A    between atoms: _337  and  _338
REMARK  142  A    between atoms: _337  and  _340
REMARK  143  A    between atoms: _340  and  _341
REMARK  144  A    between atoms: _341  and  _342
REMARK  145  A    between atoms: _345  and  _347
REMARK  146  A    between atoms: _347  and  _348
REMARK  147  A    between atoms: _347  and  _350
REMARK  148  A    between atoms: _353  and  _355
REMARK  149  A    between atoms: _355  and  _356
REMARK  150  A    between atoms: _355  and  _358
REMARK  151  A    between atoms: _358  and  _359
REMARK  152  A    between atoms: _361  and  _363
REMARK  153  A    between atoms: _363  and  _364
REMARK  154  A    between atoms: _363  and  _366
REMARK  155  A    between atoms: _366  and  _367
REMARK  156  A    between atoms: _367  and  _368
REMARK  157  A    between atoms: _368  and  _369
REMARK  158  A    between atoms: _369  and  _370
REMARK  159  A    between atoms: _374  and  _376
REMARK  160  A    between atoms: _376  and  _377
REMARK  161  A    between atoms: _376  and  _379
REMARK  162  A    between atoms: _379  and  _380
REMARK  163  A    between atoms: _385  and  _386
REMARK  164  A    between atoms: _388  and  _390
REMARK  165  A    between atoms: _390  and  _391
REMARK  166  A    between atoms: _393  and  _395
REMARK  167  A    between atoms: _395  and  _396
REMARK  168  A    between atoms: _395  and  _398
REMARK  169  A    between atoms: _401  and  _403
REMARK  170  A    between atoms: _403  and  _404
REMARK  171  A    between atoms: _403  and  _406
REMARK  172  A    between atoms: _406  and  _407
REMARK  173  A    between atoms: _407  and  _408
REMARK  174  A    between atoms: _410  and  _412
REMARK  175  A    between atoms: _412  and  _413
REMARK  176  A    between atoms: _412  and  _415
REMARK  177  A    between atoms: _418  and  _420
REMARK  178  A    between atoms: _420  and  _421
REMARK  179  A    between atoms: _420  and  _423
REMARK  180  A    between atoms: _423  and  _424
REMARK  181  A    between atoms: _424  and  _425
REMARK  182  A    between atoms: _428  and  _430
REMARK  183  A    between atoms: _430  and  _431
REMARK  184  A    between atoms: _430  and  _433
REMARK  185  A    between atoms: _433  and  _434
REMARK  186  A    between atoms: _434  and  _435
REMARK  187  A    between atoms: _435  and  _436
REMARK  188  A    between atoms: _436  and  _437
REMARK  189  A    between atoms: _441  and  _443
REMARK  190  A    between atoms: _443  and  _444
REMARK  191  A    between atoms: _443  and  _446
REMARK  192  A    between atoms: _446  and  _447
REMARK  193  A    between atoms: _450  and  _452
REMARK  194  A    between atoms: _452  and  _453
REMARK  195  A    between atoms: _456  and  _458
REMARK  196  A    between atoms: _458  and  _459
REMARK  197  A    between atoms: _458  and  _461
REMARK  198  A    between atoms: _464  and  _466
REMARK  199  A    between atoms: _466  and  _467
REMARK  200  A    between atoms: _466  and  _469
REMARK  201  A    between atoms: _469  and  _470
REMARK  202  A    between atoms: _473  and  _475
REMARK  203  A    between atoms: _475  and  _476
REMARK  204  A    between atoms: _478  and  _480
REMARK  205  A    between atoms: _480  and  _481
REMARK  206  A    between atoms: _480  and  _483
REMARK  207  A    between atoms: _483  and  _484
REMARK  208  A    between atoms: _484  and  _485
REMARK  209  A    between atoms: _485  and  _486
REMARK  210  A    between atoms: _495  and  _497
REMARK  211  A    between atoms: _497  and  _498
REMARK  212  A    between atoms: _497  and  _500
REMARK  213  A    between atoms: _500  and  _501
REMARK  214  A    between atoms: _506  and  _507
REMARK  215  A    between atoms: _509  and  _511
REMARK  216  A    between atoms: _511  and  _512
REMARK  217  A    between atoms: _511  and  _514
REMARK  218  A    between atoms: _514  and  _515
REMARK  219  A    between atoms: _520  and  _522
REMARK  220  A    between atoms: _522  and  _523
REMARK  221  A    between atoms: _522  and  _525
REMARK  222  A    between atoms: _525  and  _526
REMARK  223  A    between atoms: _526  and  _527
REMARK  224  A    between atoms: _530  and  _532
REMARK  225  A    between atoms: _532  and  _533
REMARK  226  A    between atoms: _532  and  _535
REMARK  227  A    between atoms: _535  and  _536
REMARK  228  A    between atoms: _539  and  _541
REMARK  229  A    between atoms: _541  and  _542
REMARK  230  A    between atoms: _541  and  _544
REMARK  231  A    between atoms: _544  and  _545
REMARK  232  A    between atoms: _545  and  _546
REMARK  233  A    between atoms: _551  and  _553
REMARK  234  A    between atoms: _553  and  _554
REMARK  235  A    between atoms: _553  and  _556
REMARK  236  A    between atoms: _556  and  _557
REMARK  237  A    between atoms: _560  and  _562
REMARK  238  A    between atoms: _562  and  _563
REMARK  239  A    between atoms: _562  and  _565
REMARK  240  A    between atoms: _565  and  _566
REMARK  241  A    between atoms: _569  and  _571
REMARK  242  A    between atoms: _571  and  _572
REMARK  243  A    between atoms: _571  and  _574
REMARK  244  A    between atoms: _574  and  _575
REMARK  245  A    between atoms: _578  and  _580
REMARK  246  A    between atoms: _580  and  _581
REMARK  247  A    between atoms: _580  and  _583
REMARK  248  A    between atoms: _583  and  _584
REMARK  249  A    between atoms: _587  and  _589
REMARK  250  A    between atoms: _589  and  _590
REMARK  251  A    between atoms: _589  and  _592
REMARK  252  A    between atoms: _592  and  _593
REMARK  253  A    between atoms: _593  and  _594
REMARK  254  A    between atoms: _594  and  _595
REMARK  255  A    between atoms: _604  and  _606
REMARK  256  A    between atoms: _606  and  _607
REMARK  257  A    between atoms: _606  and  _609
REMARK  258  A    between atoms: _609  and  _610
REMARK  259  A    between atoms: _615  and  _616
REMARK  260  A    between atoms: _618  and  _620
REMARK  261  A    between atoms: _620  and  _621
REMARK  262  A    between atoms: _620  and  _623
REMARK  263  A    between atoms: _623  and  _624
REMARK  264  A    between atoms: _627  and  _629
REMARK  265  A    between atoms: _629  and  _630
REMARK  266  A    between atoms: _629  and  _632
REMARK  267  A    between atoms: _634  and  _636
REMARK  268  A    between atoms: _636  and  _637
REMARK  269  A    between atoms: _639  and  _641
REMARK  270  A    between atoms: _641  and  _642
REMARK  271  A    between atoms: _641  and  _644
REMARK  272  A    between atoms: _644  and  _645
REMARK                            x       y       z     vdW  Elec       q    Type
REMARK                         _______ _______ _______ _____ _____    ______ ____
ROOT
ATOM      1  O   HOH     1      56.274  42.455  58.927  0.00  0.00    +0.000 OA
ENDROOT
TORSDOF 0
REMARK  Name = ../refined-set-2016/3juk/3juk_pocket.pdb
REMARK  272 active torsions:
REMARK  status: ('A' for Active; 'I' for Inactive)
REMARK    1  A    between atoms: _1  and  _3
REMARK    2  A    between atoms: _3  and  _4
REMARK    3  A    between atoms: _3  and  _6
REMARK    4  A    between atoms: _6  and  _7
REMARK    5  A    between atoms: _14  and  _15
REMARK    6  A    between atoms: _20  and  _22
REMARK    7  A    between atoms: _22  and  _23
REMARK    8  A    between atoms: _26  and  _28
REMARK    9  A    between atoms: _28  and  _29
REMARK   10  A    between atoms: _32  and  _34
REMARK   11  A    between atoms: _34  and  _35
REMARK   12  A    between atoms: _37  and  _39
REMARK   13  A    between atoms: _39  and  _40
REMARK   14  A    between atoms: _39  and  _42
REMARK   15  A    between atoms: _42  and  _43
REMARK   16  A    between atoms: _48  and  _49
REMARK   17  A    between atoms: _51  and  _53
REMARK   18  A    between atoms: _53  and  _54
REMARK   19  A    between atoms: _56  and  _58
REMARK   20  A    between atoms: _58  and  _59
REMARK   21  A    between atoms: _58  and  _61
REMARK   22  A    between atoms: _61  and  _62
REMARK   23  A    between atoms: _65  and  _67
REMARK   24  A    between atoms: _67  and  _68
REMARK   25  A    between atoms: _67  and  _70
REMARK   26  A    between atoms: _70  and  _71
REMARK   27  A    between atoms: _71  and  _72
REMARK   28  A    between atoms: _72  and  _73
REMARK   29  A    between atoms: _83  and  _84
REMARK   30  A    between atoms: _89  and  _91
REMARK   31  A    between atoms: _91  and  _92
REMARK   32  A    between atoms: _91  and  _94
REMARK   33  A    between atoms: _94  and  _95
REMARK   34  A    between atoms: _95  and  _96
REMARK   35  A    between atoms: _96  and  _97
REMARK   36  A    between atoms: _97  and  _98
REMARK   37  A    between atoms: _102  and  _104
REMARK   38  A    between atoms: _104  and  _105
REMARK   39  A    between atoms: _104  and  _107
REMARK   40  A    between atoms: _107  and  _108
REMARK   41  A    between atoms: _108  and  _109
REMARK   42  A    between atoms: _112  and  _114
REMARK   43  A    between atoms: _114  and  _115
REMARK   44  A    between atoms: _114  and  _117
REMARK   45  A    between atoms: _117  and  _118
REMARK   46  A    between atoms: _121  and  _123
REMARK   47  A    between atoms: _123  and  _124
REMARK   48  A    between atoms: _123  and  _126
REMARK   49  A    between atoms: _129  and  _131
REMARK   50  A    between atoms: _131  and  _132
REMARK   51  A    between atoms: _131  and  _134
REMARK   52  A    between atoms: _134  and  _135
REMARK   53  A    between atoms: _138  and  _140
REMARK   54  A    between atoms: _140  and  _141
REMARK   55  A    between atoms: _143  and  _145
REMARK   56  A    between atoms: _145  and  _146
REMARK   57  A    between atoms: _145  and  _148
REMARK   58  A    between atoms: _148  and  _149
REMARK   59  A    between atoms: _149  and  _150
REMARK   60  A    between atoms: _155  and  _157
REMARK   61  A    between atoms: _157  and  _158
REMARK   62  A    between atoms: _157  and  _160
REMARK   63  A    between atoms: _160  and  _161
REMARK   64  A    between atoms: _161  and  _162
REMARK   65  A    between atoms: _167  and  _169
REMARK   66  A    between atoms: _169  and  _170
REMARK   67  A    between atoms: _169  and  _172
REMARK   68  A    between atoms: _172  and  _173
REMARK   69  A    between atoms: _173  and  _174
REMARK   70  A    between atoms: _176  and  _178
REMARK   71  A    between atoms: _178  and  _179
REMARK   72  A    between atoms: _178  and  _181
REMARK   73  A    between atoms: _181  and  _182
REMARK   74  A    between atoms: _182  and  _183
REMARK   75  A    between atoms: _183  and  _184
REMARK   76  A    between atoms: _184  and  _185
REMARK   77  A    between atoms: _189  and  _191
REMARK   78  A    between atoms: _191  and  _192
REMARK   79  A    between atoms: _194  and  _196
REMARK   80  A    between atoms: _196  and  _197
REMARK   81  A    between atoms: _196  and  _199
REMARK   82  A    between atoms: _199  and  _200
REMARK   83  A    between atoms: _203  and  _205
REMARK   84  A    between atoms: _205  and  _206
REMARK   85  A    between atoms: _208  and  _210
REMARK   86  A    between atoms: _210  and  _211
REMARK   87  A    between atoms: _210  and  _213
REMARK   88  A    between atoms: _213  and  _214
REMARK   89  A    between atoms: _219  and  _221
REMARK   90  A    between atoms: _221  and  _222
REMARK   91  A    between atoms: _225  and  _227
REMARK   92  A    between atoms: _227  and  _228
REMARK   93  A    between atoms: _227  and  _230
REMARK   94  A    between atoms: _230  and  _231
REMARK   95  A    between atoms: _234  and  _236
REMARK   96  A    between atoms: _236  and  _237
REMARK   97  A    between atoms: _236  and  _239
REMARK   98  A    between atoms: _239  and  _240
REMARK   99  A    between atoms: _243  and  _245
REMARK  100  A    between atoms: _245  and  _246
REMARK  101  A    between atoms: _245  and  _248
REMARK  102  A    between atoms: _251  and  _253
REMARK  103  A    between atoms: _253  and  _254
REMARK  104  A    between atoms: _253  and  _256
REMARK  105  A    between atoms: _256  and  _257
REMARK  106  A    between atoms: _260  and  _262
REMARK  107  A    between atoms: _262  and  _263
REMARK  108  A    between atoms: _262  and  _265
REMARK  109  A    between atoms: _265  and  _266
REMARK  110  A    between atoms: _269  and  _271
REMARK  111  A    between atoms: _271  and  _272
REMARK  112  A    between atoms: _275  and  _277
REMARK  113  A    between atoms: _277  and  _278
REMARK  114  A    between atoms: _277  and  _280
REMARK  115  A    between atoms: _280  and  _281
REMARK  116  A    between atoms: _281  and  _282
REMARK  117  A    between atoms: _282  and  MG_647
REMARK  118  A    between atoms: _284  and  _286
REMARK  119  A    between atoms: _286  and  _287
REMARK  120  A    between atoms: _286  and  _289
REMARK  121  A    between atoms: _289  and  _290
REMARK  122  A    between atoms: _293  and  _295
REMARK  123  A    between atoms: _295  and  _296
REMARK  124  A    between atoms: _295  and  _298
REMARK  125  A    between atoms: _298  and  _299
REMARK  126  A    between atoms: _302  and  _304
REMARK  127  A    between atoms: _304  and  _305
REMARK  128  A    between atoms: _304  and  _307
REMARK  129  A    between atoms: _310  and  _312
REMARK  130  A    between atoms: _312  and  _313
REMARK  131  A    between atoms: _316  and  _318
REMARK  132  A    between atoms: _318  and  _319
REMARK  133  A    between atoms: _318  and  _321
REMARK  134  A    between atoms: _321  and  _322
REMARK  135  A    between atoms: _325  and  _327
REMARK  136  A    between atoms: _327  and  _328
REMARK  137  A    between atoms: _327  and  _330
REMARK  138  A    between atoms: _330  and  _331
REMARK  139  A    between atoms: _331  and  _332
REMARK  140  A    between atoms: _335  and  _337
REMARK  141  A    between atoms: _337  and  _338
REMARK  142  A    between atoms: _337  and  _340
REMARK  143  A    between atoms: _340  and  _341
REMARK  144  A    between atoms: _341  and  _342
REMARK  145  A    between atoms: _345  and  _347
REMARK  146  A    between atoms: _347  and  _348
REMARK  147  A    between atoms: _347  and  _350
REMARK  148  A    between atoms: _353  and  _355
REMARK  149  A    between atoms: _355  and  _356
REMARK  150  A    between atoms: _355  and  _358
REMARK  151  A    between atoms: _358  and  _359
REMARK  152  A    between atoms: _361  and  _363
REMARK  153  A    between atoms: _363  and  _364
REMARK  154  A    between atoms: _363  and  _366
REMARK  155  A    between atoms: _366  and  _367
REMARK  156  A    between atoms: _367  and  _368
REMARK  157  A    between atoms: _368  and  _369
REMARK  158  A    between atoms: _369  and  _370
REMARK  159  A    between atoms: _374  and  _376
REMARK  160  A    between atoms: _376  and  _377
REMARK  161  A    between atoms: _376  and  _379
REMARK  162  A    between atoms: _379  and  _380
REMARK  163  A    between atoms: _385  and  _386
REMARK  164  A    between atoms: _388  and  _390
REMARK  165  A    between atoms: _390  and  _391
REMARK  166  A    between atoms: _393  and  _395
REMARK  167  A    between atoms: _395  and  _396
REMARK  168  A    between atoms: _395  and  _398
REMARK  169  A    between atoms: _401  and  _403
REMARK  170  A    between atoms: _403  and  _404
REMARK  171  A    between atoms: _403  and  _406
REMARK  172  A    between atoms: _406  and  _407
REMARK  173  A    between atoms: _407  and  _408
REMARK  174  A    between atoms: _410  and  _412
REMARK  175  A    between atoms: _412  and  _413
REMARK  176  A    between atoms: _412  and  _415
REMARK  177  A    between atoms: _418  and  _420
REMARK  178  A    between atoms: _420  and  _421
REMARK  179  A    between atoms: _420  and  _423
REMARK  180  A    between atoms: _423  and  _424
REMARK  181  A    between atoms: _424  and  _425
REMARK  182  A    between atoms: _428  and  _430
REMARK  183  A    between atoms: _430  and  _431
REMARK  184  A    between atoms: _430  and  _433
REMARK  185  A    between atoms: _433  and  _434
REMARK  186  A    between atoms: _434  and  _435
REMARK  187  A    between atoms: _435  and  _436
REMARK  188  A    between atoms: _436  and  _437
REMARK  189  A    between atoms: _441  and  _443
REMARK  190  A    between atoms: _443  and  _444
REMARK  191  A    between atoms: _443  and  _446
REMARK  192  A    between atoms: _446  and  _447
REMARK  193  A    between atoms: _450  and  _452
REMARK  194  A    between atoms: _452  and  _453
REMARK  195  A    between atoms: _456  and  _458
REMARK  196  A    between atoms: _458  and  _459
REMARK  197  A    between atoms: _458  and  _461
REMARK  198  A    between atoms: _464  and  _466
REMARK  199  A    between atoms: _466  and  _467
REMARK  200  A    between atoms: _466  and  _469
REMARK  201  A    between atoms: _469  and  _470
REMARK  202  A    between atoms: _473  and  _475
REMARK  203  A    between atoms: _475  and  _476
REMARK  204  A    between atoms: _478  and  _480
REMARK  205  A    between atoms: _480  and  _481
REMARK  206  A    between atoms: _480  and  _483
REMARK  207  A    between atoms: _483  and  _484
REMARK  208  A    between atoms: _484  and  _485
REMARK  209  A    between atoms: _485  and  _486
REMARK  210  A    between atoms: _495  and  _497
REMARK  211  A    between atoms: _497  and  _498
REMARK  212  A    between atoms: _497  and  _500
REMARK  213  A    between atoms: _500  and  _501
REMARK  214  A    between atoms: _506  and  _507
REMARK  215  A    between atoms: _509  and  _511
REMARK  216  A    between atoms: _511  and  _512
REMARK  217  A    between atoms: _511  and  _514
REMARK  218  A    between atoms: _514  and  _515
REMARK  219  A    between atoms: _520  and  _522
REMARK  220  A    between atoms: _522  and  _523
REMARK  221  A    between atoms: _522  and  _525
REMARK  222  A    between atoms: _525  and  _526
REMARK  223  A    between atoms: _526  and  _527
REMARK  224  A    between atoms: _530  and  _532
REMARK  225  A    between atoms: _532  and  _533
REMARK  226  A    between atoms: _532  and  _535
REMARK  227  A    between atoms: _535  and  _536
REMARK  228  A    between atoms: _539  and  _541
REMARK  229  A    between atoms: _541  and  _542
REMARK  230  A    between atoms: _541  and  _544
REMARK  231  A    between atoms: _544  and  _545
REMARK  232  A    between atoms: _545  and  _546
REMARK  233  A    between atoms: _551  and  _553
REMARK  234  A    between atoms: _553  and  _554
REMARK  235  A    between atoms: _553  and  _556
REMARK  236  A    between atoms: _556  and  _557
REMARK  237  A    between atoms: _560  and  _562
REMARK  238  A    between atoms: _562  and  _563
REMARK  239  A    between atoms: _562  and  _565
REMARK  240  A    between atoms: _565  and  _566
REMARK  241  A    between atoms: _569  and  _571
REMARK  242  A    between atoms: _571  and  _572
REMARK  243  A    between atoms: _571  and  _574
REMARK  244  A    between atoms: _574  and  _575
REMARK  245  A    between atoms: _578  and  _580
REMARK  246  A    between atoms: _580  and  _581
REMARK  247  A    between atoms: _580  and  _583
REMARK  248  A    between atoms: _583  and  _584
REMARK  249  A    between atoms: _587  and  _589
REMARK  250  A    between atoms: _589  and  _590
REMARK  251  A    between atoms: _589  and  _592
REMARK  252  A    between atoms: _592  and  _593
REMARK  253  A    between atoms: _593  and  _594
REMARK  254  A    between atoms: _594  and  _595
REMARK  255  A    between atoms: _604  and  _606
REMARK  256  A    between atoms: _606  and  _607
REMARK  257  A    between atoms: _606  and  _609
REMARK  258  A    between atoms: _609  and  _610
REMARK  259  A    between atoms: _615  and  _616
REMARK  260  A    between atoms: _618  and  _620
REMARK  261  A    between atoms: _620  and  _621
REMARK  262  A    between atoms: _620  and  _623
REMARK  263  A    between atoms: _623  and  _624
REMARK  264  A    between atoms: _627  and  _629
REMARK  265  A    between atoms: _629  and  _630
REMARK  266  A    between atoms: _629  and  _632
REMARK  267  A    between atoms: _634  and  _636
REMARK  268  A    between atoms: _636  and  _637
REMARK  269  A    between atoms: _639  and  _641
REMARK  270  A    between atoms: _641  and  _642
REMARK  271  A    between atoms: _641  and  _644
REMARK  272  A    between atoms: _644  and  _645
REMARK                            x       y       z     vdW  Elec       q    Type
REMARK                         _______ _______ _______ _____ _____    ______ ____
ROOT
ATOM      1  O   HOH     1      59.929  44.757  50.234  0.00  0.00    +0.000 OA
ENDROOT
TORSDOF 0
REMARK  Name = ../refined-set-2016/3juk/3juk_pocket.pdb
REMARK  272 active torsions:
REMARK  status: ('A' for Active; 'I' for Inactive)
REMARK    1  A    between atoms: _1  and  _3
REMARK    2  A    between atoms: _3  and  _4
REMARK    3  A    between atoms: _3  and  _6
REMARK    4  A    between atoms: _6  and  _7
REMARK    5  A    between atoms: _14  and  _15
REMARK    6  A    between atoms: _20  and  _22
REMARK    7  A    between atoms: _22  and  _23
REMARK    8  A    between atoms: _26  and  _28
REMARK    9  A    between atoms: _28  and  _29
REMARK   10  A    between atoms: _32  and  _34
REMARK   11  A    between atoms: _34  and  _35
REMARK   12  A    between atoms: _37  and  _39
REMARK   13  A    between atoms: _39  and  _40
REMARK   14  A    between atoms: _39  and  _42
REMARK   15  A    between atoms: _42  and  _43
REMARK   16  A    between atoms: _48  and  _49
REMARK   17  A    between atoms: _51  and  _53
REMARK   18  A    between atoms: _53  and  _54
REMARK   19  A    between atoms: _56  and  _58
REMARK   20  A    between atoms: _58  and  _59
REMARK   21  A    between atoms: _58  and  _61
REMARK   22  A    between atoms: _61  and  _62
REMARK   23  A    between atoms: _65  and  _67
REMARK   24  A    between atoms: _67  and  _68
REMARK   25  A    between atoms: _67  and  _70
REMARK   26  A    between atoms: _70  and  _71
REMARK   27  A    between atoms: _71  and  _72
REMARK   28  A    between atoms: _72  and  _73
REMARK   29  A    between atoms: _83  and  _84
REMARK   30  A    between atoms: _89  and  _91
REMARK   31  A    between atoms: _91  and  _92
REMARK   32  A    between atoms: _91  and  _94
REMARK   33  A    between atoms: _94  and  _95
REMARK   34  A    between atoms: _95  and  _96
REMARK   35  A    between atoms: _96  and  _97
REMARK   36  A    between atoms: _97  and  _98
REMARK   37  A    between atoms: _102  and  _104
REMARK   38  A    between atoms: _104  and  _105
REMARK   39  A    between atoms: _104  and  _107
REMARK   40  A    between atoms: _107  and  _108
REMARK   41  A    between atoms: _108  and  _109
REMARK   42  A    between atoms: _112  and  _114
REMARK   43  A    between atoms: _114  and  _115
REMARK   44  A    between atoms: _114  and  _117
REMARK   45  A    between atoms: _117  and  _118
REMARK   46  A    between atoms: _121  and  _123
REMARK   47  A    between atoms: _123  and  _124
REMARK   48  A    between atoms: _123  and  _126
REMARK   49  A    between atoms: _129  and  _131
REMARK   50  A    between atoms: _131  and  _132
REMARK   51  A    between atoms: _131  and  _134
REMARK   52  A    between atoms: _134  and  _135
REMARK   53  A    between atoms: _138  and  _140
REMARK   54  A    between atoms: _140  and  _141
REMARK   55  A    between atoms: _143  and  _145
REMARK   56  A    between atoms: _145  and  _146
REMARK   57  A    between atoms: _145  and  _148
REMARK   58  A    between atoms: _148  and  _149
REMARK   59  A    between atoms: _149  and  _150
REMARK   60  A    between atoms: _155  and  _157
REMARK   61  A    between atoms: _157  and  _158
REMARK   62  A    between atoms: _157  and  _160
REMARK   63  A    between atoms: _160  and  _161
REMARK   64  A    between atoms: _161  and  _162
REMARK   65  A    between atoms: _167  and  _169
REMARK   66  A    between atoms: _169  and  _170
REMARK   67  A    between atoms: _169  and  _172
REMARK   68  A    between atoms: _172  and  _173
REMARK   69  A    between atoms: _173  and  _174
REMARK   70  A    between atoms: _176  and  _178
REMARK   71  A    between atoms: _178  and  _179
REMARK   72  A    between atoms: _178  and  _181
REMARK   73  A    between atoms: _181  and  _182
REMARK   74  A    between atoms: _182  and  _183
REMARK   75  A    between atoms: _183  and  _184
REMARK   76  A    between atoms: _184  and  _185
REMARK   77  A    between atoms: _189  and  _191
REMARK   78  A    between atoms: _191  and  _192
REMARK   79  A    between atoms: _194  and  _196
REMARK   80  A    between atoms: _196  and  _197
REMARK   81  A    between atoms: _196  and  _199
REMARK   82  A    between atoms: _199  and  _200
REMARK   83  A    between atoms: _203  and  _205
REMARK   84  A    between atoms: _205  and  _206
REMARK   85  A    between atoms: _208  and  _210
REMARK   86  A    between atoms: _210  and  _211
REMARK   87  A    between atoms: _210  and  _213
REMARK   88  A    between atoms: _213  and  _214
REMARK   89  A    between atoms: _219  and  _221
REMARK   90  A    between atoms: _221  and  _222
REMARK   91  A    between atoms: _225  and  _227
REMARK   92  A    between atoms: _227  and  _228
REMARK   93  A    between atoms: _227  and  _230
REMARK   94  A    between atoms: _230  and  _231
REMARK   95  A    between atoms: _234  and  _236
REMARK   96  A    between atoms: _236  and  _237
REMARK   97  A    between atoms: _236  and  _239
REMARK   98  A    between atoms: _239  and  _240
REMARK   99  A    between atoms: _243  and  _245
REMARK  100  A    between atoms: _245  and  _246
REMARK  101  A    between atoms: _245  and  _248
REMARK  102  A    between atoms: _251  and  _253
REMARK  103  A    between atoms: _253  and  _254
REMARK  104  A    between atoms: _253  and  _256
REMARK  105  A    between atoms: _256  and  _257
REMARK  106  A    between atoms: _260  and  _262
REMARK  107  A    between atoms: _262  and  _263
REMARK  108  A    between atoms: _262  and  _265
REMARK  109  A    between atoms: _265  and  _266
REMARK  110  A    between atoms: _269  and  _271
REMARK  111  A    between atoms: _271  and  _272
REMARK  112  A    between atoms: _275  and  _277
REMARK  113  A    between atoms: _277  and  _278
REMARK  114  A    between atoms: _277  and  _280
REMARK  115  A    between atoms: _280  and  _281
REMARK  116  A    between atoms: _281  and  _282
REMARK  117  A    between atoms: _282  and  MG_647
REMARK  118  A    between atoms: _284  and  _286
REMARK  119  A    between atoms: _286  and  _287
REMARK  120  A    between atoms: _286  and  _289
REMARK  121  A    between atoms: _289  and  _290
REMARK  122  A    between atoms: _293  and  _295
REMARK  123  A    between atoms: _295  and  _296
REMARK  124  A    between atoms: _295  and  _298
REMARK  125  A    between atoms: _298  and  _299
REMARK  126  A    between atoms: _302  and  _304
REMARK  127  A    between atoms: _304  and  _305
REMARK  128  A    between atoms: _304  and  _307
REMARK  129  A    between atoms: _310  and  _312
REMARK  130  A    between atoms: _312  and  _313
REMARK  131  A    between atoms: _316  and  _318
REMARK  132  A    between atoms: _318  and  _319
REMARK  133  A    between atoms: _318  and  _321
REMARK  134  A    between atoms: _321  and  _322
REMARK  135  A    between atoms: _325  and  _327
REMARK  136  A    between atoms: _327  and  _328
REMARK  137  A    between atoms: _327  and  _330
REMARK  138  A    between atoms: _330  and  _331
REMARK  139  A    between atoms: _331  and  _332
REMARK  140  A    between atoms: _335  and  _337
REMARK  141  A    between atoms: _337  and  _338
REMARK  142  A    between atoms: _337  and  _340
REMARK  143  A    between atoms: _340  and  _341
REMARK  144  A    between atoms: _341  and  _342
REMARK  145  A    between atoms: _345  and  _347
REMARK  146  A    between atoms: _347  and  _348
REMARK  147  A    between atoms: _347  and  _350
REMARK  148  A    between atoms: _353  and  _355
REMARK  149  A    between atoms: _355  and  _356
REMARK  150  A    between atoms: _355  and  _358
REMARK  151  A    between atoms: _358  and  _359
REMARK  152  A    between atoms: _361  and  _363
REMARK  153  A    between atoms: _363  and  _364
REMARK  154  A    between atoms: _363  and  _366
REMARK  155  A    between atoms: _366  and  _367
REMARK  156  A    between atoms: _367  and  _368
REMARK  157  A    between atoms: _368  and  _369
REMARK  158  A    between atoms: _369  and  _370
REMARK  159  A    between atoms: _374  and  _376
REMARK  160  A    between atoms: _376  and  _377
REMARK  161  A    between atoms: _376  and  _379
REMARK  162  A    between atoms: _379  and  _380
REMARK  163  A    between atoms: _385  and  _386
REMARK  164  A    between atoms: _388  and  _390
REMARK  165  A    between atoms: _390  and  _391
REMARK  166  A    between atoms: _393  and  _395
REMARK  167  A    between atoms: _395  and  _396
REMARK  168  A    between atoms: _395  and  _398
REMARK  169  A    between atoms: _401  and  _403
REMARK  170  A    between atoms: _403  and  _404
REMARK  171  A    between atoms: _403  and  _406
REMARK  172  A    between atoms: _406  and  _407
REMARK  173  A    between atoms: _407  and  _408
REMARK  174  A    between atoms: _410  and  _412
REMARK  175  A    between atoms: _412  and  _413
REMARK  176  A    between atoms: _412  and  _415
REMARK  177  A    between atoms: _418  and  _420
REMARK  178  A    between atoms: _420  and  _421
REMARK  179  A    between atoms: _420  and  _423
REMARK  180  A    between atoms: _423  and  _424
REMARK  181  A    between atoms: _424  and  _425
REMARK  182  A    between atoms: _428  and  _430
REMARK  183  A    between atoms: _430  and  _431
REMARK  184  A    between atoms: _430  and  _433
REMARK  185  A    between atoms: _433  and  _434
REMARK  186  A    between atoms: _434  and  _435
REMARK  187  A    between atoms: _435  and  _436
REMARK  188  A    between atoms: _436  and  _437
REMARK  189  A    between atoms: _441  and  _443
REMARK  190  A    between atoms: _443  and  _444
REMARK  191  A    between atoms: _443  and  _446
REMARK  192  A    between atoms: _446  and  _447
REMARK  193  A    between atoms: _450  and  _452
REMARK  194  A    between atoms: _452  and  _453
REMARK  195  A    between atoms: _456  and  _458
REMARK  196  A    between atoms: _458  and  _459
REMARK  197  A    between atoms: _458  and  _461
REMARK  198  A    between atoms: _464  and  _466
REMARK  199  A    between atoms: _466  and  _467
REMARK  200  A    between atoms: _466  and  _469
REMARK  201  A    between atoms: _469  and  _470
REMARK  202  A    between atoms: _473  and  _475
REMARK  203  A    between atoms: _475  and  _476
REMARK  204  A    between atoms: _478  and  _480
REMARK  205  A    between atoms: _480  and  _481
REMARK  206  A    between atoms: _480  and  _483
REMARK  207  A    between atoms: _483  and  _484
REMARK  208  A    between atoms: _484  and  _485
REMARK  209  A    between atoms: _485  and  _486
REMARK  210  A    between atoms: _495  and  _497
REMARK  211  A    between atoms: _497  and  _498
REMARK  212  A    between atoms: _497  and  _500
REMARK  213  A    between atoms: _500  and  _501
REMARK  214  A    between atoms: _506  and  _507
REMARK  215  A    between atoms: _509  and  _511
REMARK  216  A    between atoms: _511  and  _512
REMARK  217  A    between atoms: _511  and  _514
REMARK  218  A    between atoms: _514  and  _515
REMARK  219  A    between atoms: _520  and  _522
REMARK  220  A    between atoms: _522  and  _523
REMARK  221  A    between atoms: _522  and  _525
REMARK  222  A    between atoms: _525  and  _526
REMARK  223  A    between atoms: _526  and  _527
REMARK  224  A    between atoms: _530  and  _532
REMARK  225  A    between atoms: _532  and  _533
REMARK  226  A    between atoms: _532  and  _535
REMARK  227  A    between atoms: _535  and  _536
REMARK  228  A    between atoms: _539  and  _541
REMARK  229  A    between atoms: _541  and  _542
REMARK  230  A    between atoms: _541  and  _544
REMARK  231  A    between atoms: _544  and  _545
REMARK  232  A    between atoms: _545  and  _546
REMARK  233  A    between atoms: _551  and  _553
REMARK  234  A    between atoms: _553  and  _554
REMARK  235  A    between atoms: _553  and  _556
REMARK  236  A    between atoms: _556  and  _557
REMARK  237  A    between atoms: _560  and  _562
REMARK  238  A    between atoms: _562  and  _563
REMARK  239  A    between atoms: _562  and  _565
REMARK  240  A    between atoms: _565  and  _566
REMARK  241  A    between atoms: _569  and  _571
REMARK  242  A    between atoms: _571  and  _572
REMARK  243  A    between atoms: _571  and  _574
REMARK  244  A    between atoms: _574  and  _575
REMARK  245  A    between atoms: _578  and  _580
REMARK  246  A    between atoms: _580  and  _581
REMARK  247  A    between atoms: _580  and  _583
REMARK  248  A    between atoms: _583  and  _584
REMARK  249  A    between atoms: _587  and  _589
REMARK  250  A    between atoms: _589  and  _590
REMARK  251  A    between atoms: _589  and  _592
REMARK  252  A    between atoms: _592  and  _593
REMARK  253  A    between atoms: _593  and  _594
REMARK  254  A    between atoms: _594  and  _595
REMARK  255  A    between atoms: _604  and  _606
REMARK  256  A    between atoms: _606  and  _607
REMARK  257  A    between atoms: _606  and  _609
REMARK  258  A    between atoms: _609  and  _610
REMARK  259  A    between atoms: _615  and  _616
REMARK  260  A    between atoms: _618  and  _620
REMARK  261  A    between atoms: _620  and  _621
REMARK  262  A    between atoms: _620  and  _623
REMARK  263  A    between atoms: _623  and  _624
REMARK  264  A    between atoms: _627  and  _629
REMARK  265  A    between atoms: _629  and  _630
REMARK  266  A    between atoms: _629  and  _632
REMARK  267  A    between atoms: _634  and  _636
REMARK  268  A    between atoms: _636  and  _637
REMARK  269  A    between atoms: _639  and  _641
REMARK  270  A    between atoms: _641  and  _642
REMARK  271  A    between atoms: _641  and  _644
REMARK  272  A    between atoms: _644  and  _645
REMARK                            x       y       z     vdW  Elec       q    Type
REMARK                         _______ _______ _______ _____ _____    ______ ____
ROOT
ATOM      1  O   HOH     1      52.692  49.678  55.095  0.00  0.00    +0.000 OA
ENDROOT
TORSDOF 0
REMARK  Name = ../refined-set-2016/3juk/3juk_pocket.pdb
REMARK  272 active torsions:
REMARK  status: ('A' for Active; 'I' for Inactive)
REMARK    1  A    between atoms: _1  and  _3
REMARK    2  A    between atoms: _3  and  _4
REMARK    3  A    between atoms: _3  and  _6
REMARK    4  A    between atoms: _6  and  _7
REMARK    5  A    between atoms: _14  and  _15
REMARK    6  A    between atoms: _20  and  _22
REMARK    7  A    between atoms: _22  and  _23
REMARK    8  A    between atoms: _26  and  _28
REMARK    9  A    between atoms: _28  and  _29
REMARK   10  A    between atoms: _32  and  _34
REMARK   11  A    between atoms: _34  and  _35
REMARK   12  A    between atoms: _37  and  _39
REMARK   13  A    between atoms: _39  and  _40
REMARK   14  A    between atoms: _39  and  _42
REMARK   15  A    between atoms: _42  and  _43
REMARK   16  A    between atoms: _48  and  _49
REMARK   17  A    between atoms: _51  and  _53
REMARK   18  A    between atoms: _53  and  _54
REMARK   19  A    between atoms: _56  and  _58
REMARK   20  A    between atoms: _58  and  _59
REMARK   21  A    between atoms: _58  and  _61
REMARK   22  A    between atoms: _61  and  _62
REMARK   23  A    between atoms: _65  and  _67
REMARK   24  A    between atoms: _67  and  _68
REMARK   25  A    between atoms: _67  and  _70
REMARK   26  A    between atoms: _70  and  _71
REMARK   27  A    between atoms: _71  and  _72
REMARK   28  A    between atoms: _72  and  _73
REMARK   29  A    between atoms: _83  and  _84
REMARK   30  A    between atoms: _89  and  _91
REMARK   31  A    between atoms: _91  and  _92
REMARK   32  A    between atoms: _91  and  _94
REMARK   33  A    between atoms: _94  and  _95
REMARK   34  A    between atoms: _95  and  _96
REMARK   35  A    between atoms: _96  and  _97
REMARK   36  A    between atoms: _97  and  _98
REMARK   37  A    between atoms: _102  and  _104
REMARK   38  A    between atoms: _104  and  _105
REMARK   39  A    between atoms: _104  and  _107
REMARK   40  A    between atoms: _107  and  _108
REMARK   41  A    between atoms: _108  and  _109
REMARK   42  A    between atoms: _112  and  _114
REMARK   43  A    between atoms: _114  and  _115
REMARK   44  A    between atoms: _114  and  _117
REMARK   45  A    between atoms: _117  and  _118
REMARK   46  A    between atoms: _121  and  _123
REMARK   47  A    between atoms: _123  and  _124
REMARK   48  A    between atoms: _123  and  _126
REMARK   49  A    between atoms: _129  and  _131
REMARK   50  A    between atoms: _131  and  _132
REMARK   51  A    between atoms: _131  and  _134
REMARK   52  A    between atoms: _134  and  _135
REMARK   53  A    between atoms: _138  and  _140
REMARK   54  A    between atoms: _140  and  _141
REMARK   55  A    between atoms: _143  and  _145
REMARK   56  A    between atoms: _145  and  _146
REMARK   57  A    between atoms: _145  and  _148
REMARK   58  A    between atoms: _148  and  _149
REMARK   59  A    between atoms: _149  and  _150
REMARK   60  A    between atoms: _155  and  _157
REMARK   61  A    between atoms: _157  and  _158
REMARK   62  A    between atoms: _157  and  _160
REMARK   63  A    between atoms: _160  and  _161
REMARK   64  A    between atoms: _161  and  _162
REMARK   65  A    between atoms: _167  and  _169
REMARK   66  A    between atoms: _169  and  _170
REMARK   67  A    between atoms: _169  and  _172
REMARK   68  A    between atoms: _172  and  _173
REMARK   69  A    between atoms: _173  and  _174
REMARK   70  A    between atoms: _176  and  _178
REMARK   71  A    between atoms: _178  and  _179
REMARK   72  A    between atoms: _178  and  _181
REMARK   73  A    between atoms: _181  and  _182
REMARK   74  A    between atoms: _182  and  _183
REMARK   75  A    between atoms: _183  and  _184
REMARK   76  A    between atoms: _184  and  _185
REMARK   77  A    between atoms: _189  and  _191
REMARK   78  A    between atoms: _191  and  _192
REMARK   79  A    between atoms: _194  and  _196
REMARK   80  A    between atoms: _196  and  _197
REMARK   81  A    between atoms: _196  and  _199
REMARK   82  A    between atoms: _199  and  _200
REMARK   83  A    between atoms: _203  and  _205
REMARK   84  A    between atoms: _205  and  _206
REMARK   85  A    between atoms: _208  and  _210
REMARK   86  A    between atoms: _210  and  _211
REMARK   87  A    between atoms: _210  and  _213
REMARK   88  A    between atoms: _213  and  _214
REMARK   89  A    between atoms: _219  and  _221
REMARK   90  A    between atoms: _221  and  _222
REMARK   91  A    between atoms: _225  and  _227
REMARK   92  A    between atoms: _227  and  _228
REMARK   93  A    between atoms: _227  and  _230
REMARK   94  A    between atoms: _230  and  _231
REMARK   95  A    between atoms: _234  and  _236
REMARK   96  A    between atoms: _236  and  _237
REMARK   97  A    between atoms: _236  and  _239
REMARK   98  A    between atoms: _239  and  _240
REMARK   99  A    between atoms: _243  and  _245
REMARK  100  A    between atoms: _245  and  _246
REMARK  101  A    between atoms: _245  and  _248
REMARK  102  A    between atoms: _251  and  _253
REMARK  103  A    between atoms: _253  and  _254
REMARK  104  A    between atoms: _253  and  _256
REMARK  105  A    between atoms: _256  and  _257
REMARK  106  A    between atoms: _260  and  _262
REMARK  107  A    between atoms: _262  and  _263
REMARK  108  A    between atoms: _262  and  _265
REMARK  109  A    between atoms: _265  and  _266
REMARK  110  A    between atoms: _269  and  _271
REMARK  111  A    between atoms: _271  and  _272
REMARK  112  A    between atoms: _275  and  _277
REMARK  113  A    between atoms: _277  and  _278
REMARK  114  A    between atoms: _277  and  _280
REMARK  115  A    between atoms: _280  and  _281
REMARK  116  A    between atoms: _281  and  _282
REMARK  117  A    between atoms: _282  and  MG_647
REMARK  118  A    between atoms: _284  and  _286
REMARK  119  A    between atoms: _286  and  _287
REMARK  120  A    between atoms: _286  and  _289
REMARK  121  A    between atoms: _289  and  _290
REMARK  122  A    between atoms: _293  and  _295
REMARK  123  A    between atoms: _295  and  _296
REMARK  124  A    between atoms: _295  and  _298
REMARK  125  A    between atoms: _298  and  _299
REMARK  126  A    between atoms: _302  and  _304
REMARK  127  A    between atoms: _304  and  _305
REMARK  128  A    between atoms: _304  and  _307
REMARK  129  A    between atoms: _310  and  _312
REMARK  130  A    between atoms: _312  and  _313
REMARK  131  A    between atoms: _316  and  _318
REMARK  132  A    between atoms: _318  and  _319
REMARK  133  A    between atoms: _318  and  _321
REMARK  134  A    between atoms: _321  and  _322
REMARK  135  A    between atoms: _325  and  _327
REMARK  136  A    between atoms: _327  and  _328
REMARK  137  A    between atoms: _327  and  _330
REMARK  138  A    between atoms: _330  and  _331
REMARK  139  A    between atoms: _331  and  _332
REMARK  140  A    between atoms: _335  and  _337
REMARK  141  A    between atoms: _337  and  _338
REMARK  142  A    between atoms: _337  and  _340
REMARK  143  A    between atoms: _340  and  _341
REMARK  144  A    between atoms: _341  and  _342
REMARK  145  A    between atoms: _345  and  _347
REMARK  146  A    between atoms: _347  and  _348
REMARK  147  A    between atoms: _347  and  _350
REMARK  148  A    between atoms: _353  and  _355
REMARK  149  A    between atoms: _355  and  _356
REMARK  150  A    between atoms: _355  and  _358
REMARK  151  A    between atoms: _358  and  _359
REMARK  152  A    between atoms: _361  and  _363
REMARK  153  A    between atoms: _363  and  _364
REMARK  154  A    between atoms: _363  and  _366
REMARK  155  A    between atoms: _366  and  _367
REMARK  156  A    between atoms: _367  and  _368
REMARK  157  A    between atoms: _368  and  _369
REMARK  158  A    between atoms: _369  and  _370
REMARK  159  A    between atoms: _374  and  _376
REMARK  160  A    between atoms: _376  and  _377
REMARK  161  A    between atoms: _376  and  _379
REMARK  162  A    between atoms: _379  and  _380
REMARK  163  A    between atoms: _385  and  _386
REMARK  164  A    between atoms: _388  and  _390
REMARK  165  A    between atoms: _390  and  _391
REMARK  166  A    between atoms: _393  and  _395
REMARK  167  A    between atoms: _395  and  _396
REMARK  168  A    between atoms: _395  and  _398
REMARK  169  A    between atoms: _401  and  _403
REMARK  170  A    between atoms: _403  and  _404
REMARK  171  A    between atoms: _403  and  _406
REMARK  172  A    between atoms: _406  and  _407
REMARK  173  A    between atoms: _407  and  _408
REMARK  174  A    between atoms: _410  and  _412
REMARK  175  A    between atoms: _412  and  _413
REMARK  176  A    between atoms: _412  and  _415
REMARK  177  A    between atoms: _418  and  _420
REMARK  178  A    between atoms: _420  and  _421
REMARK  179  A    between atoms: _420  and  _423
REMARK  180  A    between atoms: _423  and  _424
REMARK  181  A    between atoms: _424  and  _425
REMARK  182  A    between atoms: _428  and  _430
REMARK  183  A    between atoms: _430  and  _431
REMARK  184  A    between atoms: _430  and  _433
REMARK  185  A    between atoms: _433  and  _434
REMARK  186  A    between atoms: _434  and  _435
REMARK  187  A    between atoms: _435  and  _436
REMARK  188  A    between atoms: _436  and  _437
REMARK  189  A    between atoms: _441  and  _443
REMARK  190  A    between atoms: _443  and  _444
REMARK  191  A    between atoms: _443  and  _446
REMARK  192  A    between atoms: _446  and  _447
REMARK  193  A    between atoms: _450  and  _452
REMARK  194  A    between atoms: _452  and  _453
REMARK  195  A    between atoms: _456  and  _458
REMARK  196  A    between atoms: _458  and  _459
REMARK  197  A    between atoms: _458  and  _461
REMARK  198  A    between atoms: _464  and  _466
REMARK  199  A    between atoms: _466  and  _467
REMARK  200  A    between atoms: _466  and  _469
REMARK  201  A    between atoms: _469  and  _470
REMARK  202  A    between atoms: _473  and  _475
REMARK  203  A    between atoms: _475  and  _476
REMARK  204  A    between atoms: _478  and  _480
REMARK  205  A    between atoms: _480  and  _481
REMARK  206  A    between atoms: _480  and  _483
REMARK  207  A    between atoms: _483  and  _484
REMARK  208  A    between atoms: _484  and  _485
REMARK  209  A    between atoms: _485  and  _486
REMARK  210  A    between atoms: _495  and  _497
REMARK  211  A    between atoms: _497  and  _498
REMARK  212  A    between atoms: _497  and  _500
REMARK  213  A    between atoms: _500  and  _501
REMARK  214  A    between atoms: _506  and  _507
REMARK  215  A    between atoms: _509  and  _511
REMARK  216  A    between atoms: _511  and  _512
REMARK  217  A    between atoms: _511  and  _514
REMARK  218  A    between atoms: _514  and  _515
REMARK  219  A    between atoms: _520  and  _522
REMARK  220  A    between atoms: _522  and  _523
REMARK  221  A    between atoms: _522  and  _525
REMARK  222  A    between atoms: _525  and  _526
REMARK  223  A    between atoms: _526  and  _527
REMARK  224  A    between atoms: _530  and  _532
REMARK  225  A    between atoms: _532  and  _533
REMARK  226  A    between atoms: _532  and  _535
REMARK  227  A    between atoms: _535  and  _536
REMARK  228  A    between atoms: _539  and  _541
REMARK  229  A    between atoms: _541  and  _542
REMARK  230  A    between atoms: _541  and  _544
REMARK  231  A    between atoms: _544  and  _545
REMARK  232  A    between atoms: _545  and  _546
REMARK  233  A    between atoms: _551  and  _553
REMARK  234  A    between atoms: _553  and  _554
REMARK  235  A    between atoms: _553  and  _556
REMARK  236  A    between atoms: _556  and  _557
REMARK  237  A    between atoms: _560  and  _562
REMARK  238  A    between atoms: _562  and  _563
REMARK  239  A    between atoms: _562  and  _565
REMARK  240  A    between atoms: _565  and  _566
REMARK  241  A    between atoms: _569  and  _571
REMARK  242  A    between atoms: _571  and  _572
REMARK  243  A    between atoms: _571  and  _574
REMARK  244  A    between atoms: _574  and  _575
REMARK  245  A    between atoms: _578  and  _580
REMARK  246  A    between atoms: _580  and  _581
REMARK  247  A    between atoms: _580  and  _583
REMARK  248  A    between atoms: _583  and  _584
REMARK  249  A    between atoms: _587  and  _589
REMARK  250  A    between atoms: _589  and  _590
REMARK  251  A    between atoms: _589  and  _592
REMARK  252  A    between atoms: _592  and  _593
REMARK  253  A    between atoms: _593  and  _594
REMARK  254  A    between atoms: _594  and  _595
REMARK  255  A    between atoms: _604  and  _606
REMARK  256  A    between atoms: _606  and  _607
REMARK  257  A    between atoms: _606  and  _609
REMARK  258  A    between atoms: _609  and  _610
REMARK  259  A    between atoms: _615  and  _616
REMARK  260  A    between atoms: _618  and  _620
REMARK  261  A    between atoms: _620  and  _621
REMARK  262  A    between atoms: _620  and  _623
REMARK  263  A    between atoms: _623  and  _624
REMARK  264  A    between atoms: _627  and  _629
REMARK  265  A    between atoms: _629  and  _630
REMARK  266  A    between atoms: _629  and  _632
REMARK  267  A    between atoms: _634  and  _636
REMARK  268  A    between atoms: _636  and  _637
REMARK  269  A    between atoms: _639  and  _641
REMARK  270  A    between atoms: _641  and  _642
REMARK  271  A    between atoms: _641  and  _644
REMARK  272  A    between atoms: _644  and  _645
REMARK                            x       y       z     vdW  Elec       q    Type
REMARK                         _______ _______ _______ _____ _____    ______ ____
ROOT
ATOM      1  O   HOH     1      64.152  32.532  49.458  0.00  0.00    +0.000 OA
ENDROOT
TORSDOF 0
REMARK  Name = ../refined-set-2016/3juk/3juk_pocket.pdb
REMARK  272 active torsions:
REMARK  status: ('A' for Active; 'I' for Inactive)
REMARK    1  A    between atoms: _1  and  _3
REMARK    2  A    between atoms: _3  and  _4
REMARK    3  A    between atoms: _3  and  _6
REMARK    4  A    between atoms: _6  and  _7
REMARK    5  A    between atoms: _14  and  _15
REMARK    6  A    between atoms: _20  and  _22
REMARK    7  A    between atoms: _22  and  _23
REMARK    8  A    between atoms: _26  and  _28
REMARK    9  A    between atoms: _28  and  _29
REMARK   10  A    between atoms: _32  and  _34
REMARK   11  A    between atoms: _34  and  _35
REMARK   12  A    between atoms: _37  and  _39
REMARK   13  A    between atoms: _39  and  _40
REMARK   14  A    between atoms: _39  and  _42
REMARK   15  A    between atoms: _42  and  _43
REMARK   16  A    between atoms: _48  and  _49
REMARK   17  A    between atoms: _51  and  _53
REMARK   18  A    between atoms: _53  and  _54
REMARK   19  A    between atoms: _56  and  _58
REMARK   20  A    between atoms: _58  and  _59
REMARK   21  A    between atoms: _58  and  _61
REMARK   22  A    between atoms: _61  and  _62
REMARK   23  A    between atoms: _65  and  _67
REMARK   24  A    between atoms: _67  and  _68
REMARK   25  A    between atoms: _67  and  _70
REMARK   26  A    between atoms: _70  and  _71
REMARK   27  A    between atoms: _71  and  _72
REMARK   28  A    between atoms: _72  and  _73
REMARK   29  A    between atoms: _83  and  _84
REMARK   30  A    between atoms: _89  and  _91
REMARK   31  A    between atoms: _91  and  _92
REMARK   32  A    between atoms: _91  and  _94
REMARK   33  A    between atoms: _94  and  _95
REMARK   34  A    between atoms: _95  and  _96
REMARK   35  A    between atoms: _96  and  _97
REMARK   36  A    between atoms: _97  and  _98
REMARK   37  A    between atoms: _102  and  _104
REMARK   38  A    between atoms: _104  and  _105
REMARK   39  A    between atoms: _104  and  _107
REMARK   40  A    between atoms: _107  and  _108
REMARK   41  A    between atoms: _108  and  _109
REMARK   42  A    between atoms: _112  and  _114
REMARK   43  A    between atoms: _114  and  _115
REMARK   44  A    between atoms: _114  and  _117
REMARK   45  A    between atoms: _117  and  _118
REMARK   46  A    between atoms: _121  and  _123
REMARK   47  A    between atoms: _123  and  _124
REMARK   48  A    between atoms: _123  and  _126
REMARK   49  A    between atoms: _129  and  _131
REMARK   50  A    between atoms: _131  and  _132
REMARK   51  A    between atoms: _131  and  _134
REMARK   52  A    between atoms: _134  and  _135
REMARK   53  A    between atoms: _138  and  _140
REMARK   54  A    between atoms: _140  and  _141
REMARK   55  A    between atoms: _143  and  _145
REMARK   56  A    between atoms: _145  and  _146
REMARK   57  A    between atoms: _145  and  _148
REMARK   58  A    between atoms: _148  and  _149
REMARK   59  A    between atoms: _149  and  _150
REMARK   60  A    between atoms: _155  and  _157
REMARK   61  A    between atoms: _157  and  _158
REMARK   62  A    between atoms: _157  and  _160
REMARK   63  A    between atoms: _160  and  _161
REMARK   64  A    between atoms: _161  and  _162
REMARK   65  A    between atoms: _167  and  _169
REMARK   66  A    between atoms: _169  and  _170
REMARK   67  A    between atoms: _169  and  _172
REMARK   68  A    between atoms: _172  and  _173
REMARK   69  A    between atoms: _173  and  _174
REMARK   70  A    between atoms: _176  and  _178
REMARK   71  A    between atoms: _178  and  _179
REMARK   72  A    between atoms: _178  and  _181
REMARK   73  A    between atoms: _181  and  _182
REMARK   74  A    between atoms: _182  and  _183
REMARK   75  A    between atoms: _183  and  _184
REMARK   76  A    between atoms: _184  and  _185
REMARK   77  A    between atoms: _189  and  _191
REMARK   78  A    between atoms: _191  and  _192
REMARK   79  A    between atoms: _194  and  _196
REMARK   80  A    between atoms: _196  and  _197
REMARK   81  A    between atoms: _196  and  _199
REMARK   82  A    between atoms: _199  and  _200
REMARK   83  A    between atoms: _203  and  _205
REMARK   84  A    between atoms: _205  and  _206
REMARK   85  A    between atoms: _208  and  _210
REMARK   86  A    between atoms: _210  and  _211
REMARK   87  A    between atoms: _210  and  _213
REMARK   88  A    between atoms: _213  and  _214
REMARK   89  A    between atoms: _219  and  _221
REMARK   90  A    between atoms: _221  and  _222
REMARK   91  A    between atoms: _225  and  _227
REMARK   92  A    between atoms: _227  and  _228
REMARK   93  A    between atoms: _227  and  _230
REMARK   94  A    between atoms: _230  and  _231
REMARK   95  A    between atoms: _234  and  _236
REMARK   96  A    between atoms: _236  and  _237
REMARK   97  A    between atoms: _236  and  _239
REMARK   98  A    between atoms: _239  and  _240
REMARK   99  A    between atoms: _243  and  _245
REMARK  100  A    between atoms: _245  and  _246
REMARK  101  A    between atoms: _245  and  _248
REMARK  102  A    between atoms: _251  and  _253
REMARK  103  A    between atoms: _253  and  _254
REMARK  104  A    between atoms: _253  and  _256
REMARK  105  A    between atoms: _256  and  _257
REMARK  106  A    between atoms: _260  and  _262
REMARK  107  A    between atoms: _262  and  _263
REMARK  108  A    between atoms: _262  and  _265
REMARK  109  A    between atoms: _265  and  _266
REMARK  110  A    between atoms: _269  and  _271
REMARK  111  A    between atoms: _271  and  _272
REMARK  112  A    between atoms: _275  and  _277
REMARK  113  A    between atoms: _277  and  _278
REMARK  114  A    between atoms: _277  and  _280
REMARK  115  A    between atoms: _280  and  _281
REMARK  116  A    between atoms: _281  and  _282
REMARK  117  A    between atoms: _282  and  MG_647
REMARK  118  A    between atoms: _284  and  _286
REMARK  119  A    between atoms: _286  and  _287
REMARK  120  A    between atoms: _286  and  _289
REMARK  121  A    between atoms: _289  and  _290
REMARK  122  A    between atoms: _293  and  _295
REMARK  123  A    between atoms: _295  and  _296
REMARK  124  A    between atoms: _295  and  _298
REMARK  125  A    between atoms: _298  and  _299
REMARK  126  A    between atoms: _302  and  _304
REMARK  127  A    between atoms: _304  and  _305
REMARK  128  A    between atoms: _304  and  _307
REMARK  129  A    between atoms: _310  and  _312
REMARK  130  A    between atoms: _312  and  _313
REMARK  131  A    between atoms: _316  and  _318
REMARK  132  A    between atoms: _318  and  _319
REMARK  133  A    between atoms: _318  and  _321
REMARK  134  A    between atoms: _321  and  _322
REMARK  135  A    between atoms: _325  and  _327
REMARK  136  A    between atoms: _327  and  _328
REMARK  137  A    between atoms: _327  and  _330
REMARK  138  A    between atoms: _330  and  _331
REMARK  139  A    between atoms: _331  and  _332
REMARK  140  A    between atoms: _335  and  _337
REMARK  141  A    between atoms: _337  and  _338
REMARK  142  A    between atoms: _337  and  _340
REMARK  143  A    between atoms: _340  and  _341
REMARK  144  A    between atoms: _341  and  _342
REMARK  145  A    between atoms: _345  and  _347
REMARK  146  A    between atoms: _347  and  _348
REMARK  147  A    between atoms: _347  and  _350
REMARK  148  A    between atoms: _353  and  _355
REMARK  149  A    between atoms: _355  and  _356
REMARK  150  A    between atoms: _355  and  _358
REMARK  151  A    between atoms: _358  and  _359
REMARK  152  A    between atoms: _361  and  _363
REMARK  153  A    between atoms: _363  and  _364
REMARK  154  A    between atoms: _363  and  _366
REMARK  155  A    between atoms: _366  and  _367
REMARK  156  A    between atoms: _367  and  _368
REMARK  157  A    between atoms: _368  and  _369
REMARK  158  A    between atoms: _369  and  _370
REMARK  159  A    between atoms: _374  and  _376
REMARK  160  A    between atoms: _376  and  _377
REMARK  161  A    between atoms: _376  and  _379
REMARK  162  A    between atoms: _379  and  _380
REMARK  163  A    between atoms: _385  and  _386
REMARK  164  A    between atoms: _388  and  _390
REMARK  165  A    between atoms: _390  and  _391
REMARK  166  A    between atoms: _393  and  _395
REMARK  167  A    between atoms: _395  and  _396
REMARK  168  A    between atoms: _395  and  _398
REMARK  169  A    between atoms: _401  and  _403
REMARK  170  A    between atoms: _403  and  _404
REMARK  171  A    between atoms: _403  and  _406
REMARK  172  A    between atoms: _406  and  _407
REMARK  173  A    between atoms: _407  and  _408
REMARK  174  A    between atoms: _410  and  _412
REMARK  175  A    between atoms: _412  and  _413
REMARK  176  A    between atoms: _412  and  _415
REMARK  177  A    between atoms: _418  and  _420
REMARK  178  A    between atoms: _420  and  _421
REMARK  179  A    between atoms: _420  and  _423
REMARK  180  A    between atoms: _423  and  _424
REMARK  181  A    between atoms: _424  and  _425
REMARK  182  A    between atoms: _428  and  _430
REMARK  183  A    between atoms: _430  and  _431
REMARK  184  A    between atoms: _430  and  _433
REMARK  185  A    between atoms: _433  and  _434
REMARK  186  A    between atoms: _434  and  _435
REMARK  187  A    between atoms: _435  and  _436
REMARK  188  A    between atoms: _436  and  _437
REMARK  189  A    between atoms: _441  and  _443
REMARK  190  A    between atoms: _443  and  _444
REMARK  191  A    between atoms: _443  and  _446
REMARK  192  A    between atoms: _446  and  _447
REMARK  193  A    between atoms: _450  and  _452
REMARK  194  A    between atoms: _452  and  _453
REMARK  195  A    between atoms: _456  and  _458
REMARK  196  A    between atoms: _458  and  _459
REMARK  197  A    between atoms: _458  and  _461
REMARK  198  A    between atoms: _464  and  _466
REMARK  199  A    between atoms: _466  and  _467
REMARK  200  A    between atoms: _466  and  _469
REMARK  201  A    between atoms: _469  and  _470
REMARK  202  A    between atoms: _473  and  _475
REMARK  203  A    between atoms: _475  and  _476
REMARK  204  A    between atoms: _478  and  _480
REMARK  205  A    between atoms: _480  and  _481
REMARK  206  A    between atoms: _480  and  _483
REMARK  207  A    between atoms: _483  and  _484
REMARK  208  A    between atoms: _484  and  _485
REMARK  209  A    between atoms: _485  and  _486
REMARK  210  A    between atoms: _495  and  _497
REMARK  211  A    between atoms: _497  and  _498
REMARK  212  A    between atoms: _497  and  _500
REMARK  213  A    between atoms: _500  and  _501
REMARK  214  A    between atoms: _506  and  _507
REMARK  215  A    between atoms: _509  and  _511
REMARK  216  A    between atoms: _511  and  _512
REMARK  217  A    between atoms: _511  and  _514
REMARK  218  A    between atoms: _514  and  _515
REMARK  219  A    between atoms: _520  and  _522
REMARK  220  A    between atoms: _522  and  _523
REMARK  221  A    between atoms: _522  and  _525
REMARK  222  A    between atoms: _525  and  _526
REMARK  223  A    between atoms: _526  and  _527
REMARK  224  A    between atoms: _530  and  _532
REMARK  225  A    between atoms: _532  and  _533
REMARK  226  A    between atoms: _532  and  _535
REMARK  227  A    between atoms: _535  and  _536
REMARK  228  A    between atoms: _539  and  _541
REMARK  229  A    between atoms: _541  and  _542
REMARK  230  A    between atoms: _541  and  _544
REMARK  231  A    between atoms: _544  and  _545
REMARK  232  A    between atoms: _545  and  _546
REMARK  233  A    between atoms: _551  and  _553
REMARK  234  A    between atoms: _553  and  _554
REMARK  235  A    between atoms: _553  and  _556
REMARK  236  A    between atoms: _556  and  _557
REMARK  237  A    between atoms: _560  and  _562
REMARK  238  A    between atoms: _562  and  _563
REMARK  239  A    between atoms: _562  and  _565
REMARK  240  A    between atoms: _565  and  _566
REMARK  241  A    between atoms: _569  and  _571
REMARK  242  A    between atoms: _571  and  _572
REMARK  243  A    between atoms: _571  and  _574
REMARK  244  A    between atoms: _574  and  _575
REMARK  245  A    between atoms: _578  and  _580
REMARK  246  A    between atoms: _580  and  _581
REMARK  247  A    between atoms: _580  and  _583
REMARK  248  A    between atoms: _583  and  _584
REMARK  249  A    between atoms: _587  and  _589
REMARK  250  A    between atoms: _589  and  _590
REMARK  251  A    between atoms: _589  and  _592
REMARK  252  A    between atoms: _592  and  _593
REMARK  253  A    between atoms: _593  and  _594
REMARK  254  A    between atoms: _594  and  _595
REMARK  255  A    between atoms: _604  and  _606
REMARK  256  A    between atoms: _606  and  _607
REMARK  257  A    between atoms: _606  and  _609
REMARK  258  A    between atoms: _609  and  _610
REMARK  259  A    between atoms: _615  and  _616
REMARK  260  A    between atoms: _618  and  _620
REMARK  261  A    between atoms: _620  and  _621
REMARK  262  A    between atoms: _620  and  _623
REMARK  263  A    between atoms: _623  and  _624
REMARK  264  A    between atoms: _627  and  _629
REMARK  265  A    between atoms: _629  and  _630
REMARK  266  A    between atoms: _629  and  _632
REMARK  267  A    between atoms: _634  and  _636
REMARK  268  A    between atoms: _636  and  _637
REMARK  269  A    between atoms: _639  and  _641
REMARK  270  A    between atoms: _641  and  _642
REMARK  271  A    between atoms: _641  and  _644
REMARK  272  A    between atoms: _644  and  _645
REMARK                            x       y       z     vdW  Elec       q    Type
REMARK                         _______ _______ _______ _____ _____    ______ ____
ROOT
ATOM      1  O   HOH     1      57.757  31.302  52.549  0.00  0.00    +0.000 OA
ENDROOT
TORSDOF 0
REMARK  Name = ../refined-set-2016/3juk/3juk_pocket.pdb
REMARK  272 active torsions:
REMARK  status: ('A' for Active; 'I' for Inactive)
REMARK    1  A    between atoms: _1  and  _3
REMARK    2  A    between atoms: _3  and  _4
REMARK    3  A    between atoms: _3  and  _6
REMARK    4  A    between atoms: _6  and  _7
REMARK    5  A    between atoms: _14  and  _15
REMARK    6  A    between atoms: _20  and  _22
REMARK    7  A    between atoms: _22  and  _23
REMARK    8  A    between atoms: _26  and  _28
REMARK    9  A    between atoms: _28  and  _29
REMARK   10  A    between atoms: _32  and  _34
REMARK   11  A    between atoms: _34  and  _35
REMARK   12  A    between atoms: _37  and  _39
REMARK   13  A    between atoms: _39  and  _40
REMARK   14  A    between atoms: _39  and  _42
REMARK   15  A    between atoms: _42  and  _43
REMARK   16  A    between atoms: _48  and  _49
REMARK   17  A    between atoms: _51  and  _53
REMARK   18  A    between atoms: _53  and  _54
REMARK   19  A    between atoms: _56  and  _58
REMARK   20  A    between atoms: _58  and  _59
REMARK   21  A    between atoms: _58  and  _61
REMARK   22  A    between atoms: _61  and  _62
REMARK   23  A    between atoms: _65  and  _67
REMARK   24  A    between atoms: _67  and  _68
REMARK   25  A    between atoms: _67  and  _70
REMARK   26  A    between atoms: _70  and  _71
REMARK   27  A    between atoms: _71  and  _72
REMARK   28  A    between atoms: _72  and  _73
REMARK   29  A    between atoms: _83  and  _84
REMARK   30  A    between atoms: _89  and  _91
REMARK   31  A    between atoms: _91  and  _92
REMARK   32  A    between atoms: _91  and  _94
REMARK   33  A    between atoms: _94  and  _95
REMARK   34  A    between atoms: _95  and  _96
REMARK   35  A    between atoms: _96  and  _97
REMARK   36  A    between atoms: _97  and  _98
REMARK   37  A    between atoms: _102  and  _104
REMARK   38  A    between atoms: _104  and  _105
REMARK   39  A    between atoms: _104  and  _107
REMARK   40  A    between atoms: _107  and  _108
REMARK   41  A    between atoms: _108  and  _109
REMARK   42  A    between atoms: _112  and  _114
REMARK   43  A    between atoms: _114  and  _115
REMARK   44  A    between atoms: _114  and  _117
REMARK   45  A    between atoms: _117  and  _118
REMARK   46  A    between atoms: _121  and  _123
REMARK   47  A    between atoms: _123  and  _124
REMARK   48  A    between atoms: _123  and  _126
REMARK   49  A    between atoms: _129  and  _131
REMARK   50  A    between atoms: _131  and  _132
REMARK   51  A    between atoms: _131  and  _134
REMARK   52  A    between atoms: _134  and  _135
REMARK   53  A    between atoms: _138  and  _140
REMARK   54  A    between atoms: _140  and  _141
REMARK   55  A    between atoms: _143  and  _145
REMARK   56  A    between atoms: _145  and  _146
REMARK   57  A    between atoms: _145  and  _148
REMARK   58  A    between atoms: _148  and  _149
REMARK   59  A    between atoms: _149  and  _150
REMARK   60  A    between atoms: _155  and  _157
REMARK   61  A    between atoms: _157  and  _158
REMARK   62  A    between atoms: _157  and  _160
REMARK   63  A    between atoms: _160  and  _161
REMARK   64  A    between atoms: _161  and  _162
REMARK   65  A    between atoms: _167  and  _169
REMARK   66  A    between atoms: _169  and  _170
REMARK   67  A    between atoms: _169  and  _172
REMARK   68  A    between atoms: _172  and  _173
REMARK   69  A    between atoms: _173  and  _174
REMARK   70  A    between atoms: _176  and  _178
REMARK   71  A    between atoms: _178  and  _179
REMARK   72  A    between atoms: _178  and  _181
REMARK   73  A    between atoms: _181  and  _182
REMARK   74  A    between atoms: _182  and  _183
REMARK   75  A    between atoms: _183  and  _184
REMARK   76  A    between atoms: _184  and  _185
REMARK   77  A    between atoms: _189  and  _191
REMARK   78  A    between atoms: _191  and  _192
REMARK   79  A    between atoms: _194  and  _196
REMARK   80  A    between atoms: _196  and  _197
REMARK   81  A    between atoms: _196  and  _199
REMARK   82  A    between atoms: _199  and  _200
REMARK   83  A    between atoms: _203  and  _205
REMARK   84  A    between atoms: _205  and  _206
REMARK   85  A    between atoms: _208  and  _210
REMARK   86  A    between atoms: _210  and  _211
REMARK   87  A    between atoms: _210  and  _213
REMARK   88  A    between atoms: _213  and  _214
REMARK   89  A    between atoms: _219  and  _221
REMARK   90  A    between atoms: _221  and  _222
REMARK   91  A    between atoms: _225  and  _227
REMARK   92  A    between atoms: _227  and  _228
REMARK   93  A    between atoms: _227  and  _230
REMARK   94  A    between atoms: _230  and  _231
REMARK   95  A    between atoms: _234  and  _236
REMARK   96  A    between atoms: _236  and  _237
REMARK   97  A    between atoms: _236  and  _239
REMARK   98  A    between atoms: _239  and  _240
REMARK   99  A    between atoms: _243  and  _245
REMARK  100  A    between atoms: _245  and  _246
REMARK  101  A    between atoms: _245  and  _248
REMARK  102  A    between atoms: _251  and  _253
REMARK  103  A    between atoms: _253  and  _254
REMARK  104  A    between atoms: _253  and  _256
REMARK  105  A    between atoms: _256  and  _257
REMARK  106  A    between atoms: _260  and  _262
REMARK  107  A    between atoms: _262  and  _263
REMARK  108  A    between atoms: _262  and  _265
REMARK  109  A    between atoms: _265  and  _266
REMARK  110  A    between atoms: _269  and  _271
REMARK  111  A    between atoms: _271  and  _272
REMARK  112  A    between atoms: _275  and  _277
REMARK  113  A    between atoms: _277  and  _278
REMARK  114  A    between atoms: _277  and  _280
REMARK  115  A    between atoms: _280  and  _281
REMARK  116  A    between atoms: _281  and  _282
REMARK  117  A    between atoms: _282  and  MG_647
REMARK  118  A    between atoms: _284  and  _286
REMARK  119  A    between atoms: _286  and  _287
REMARK  120  A    between atoms: _286  and  _289
REMARK  121  A    between atoms: _289  and  _290
REMARK  122  A    between atoms: _293  and  _295
REMARK  123  A    between atoms: _295  and  _296
REMARK  124  A    between atoms: _295  and  _298
REMARK  125  A    between atoms: _298  and  _299
REMARK  126  A    between atoms: _302  and  _304
REMARK  127  A    between atoms: _304  and  _305
REMARK  128  A    between atoms: _304  and  _307
REMARK  129  A    between atoms: _310  and  _312
REMARK  130  A    between atoms: _312  and  _313
REMARK  131  A    between atoms: _316  and  _318
REMARK  132  A    between atoms: _318  and  _319
REMARK  133  A    between atoms: _318  and  _321
REMARK  134  A    between atoms: _321  and  _322
REMARK  135  A    between atoms: _325  and  _327
REMARK  136  A    between atoms: _327  and  _328
REMARK  137  A    between atoms: _327  and  _330
REMARK  138  A    between atoms: _330  and  _331
REMARK  139  A    between atoms: _331  and  _332
REMARK  140  A    between atoms: _335  and  _337
REMARK  141  A    between atoms: _337  and  _338
REMARK  142  A    between atoms: _337  and  _340
REMARK  143  A    between atoms: _340  and  _341
REMARK  144  A    between atoms: _341  and  _342
REMARK  145  A    between atoms: _345  and  _347
REMARK  146  A    between atoms: _347  and  _348
REMARK  147  A    between atoms: _347  and  _350
REMARK  148  A    between atoms: _353  and  _355
REMARK  149  A    between atoms: _355  and  _356
REMARK  150  A    between atoms: _355  and  _358
REMARK  151  A    between atoms: _358  and  _359
REMARK  152  A    between atoms: _361  and  _363
REMARK  153  A    between atoms: _363  and  _364
REMARK  154  A    between atoms: _363  and  _366
REMARK  155  A    between atoms: _366  and  _367
REMARK  156  A    between atoms: _367  and  _368
REMARK  157  A    between atoms: _368  and  _369
REMARK  158  A    between atoms: _369  and  _370
REMARK  159  A    between atoms: _374  and  _376
REMARK  160  A    between atoms: _376  and  _377
REMARK  161  A    between atoms: _376  and  _379
REMARK  162  A    between atoms: _379  and  _380
REMARK  163  A    between atoms: _385  and  _386
REMARK  164  A    between atoms: _388  and  _390
REMARK  165  A    between atoms: _390  and  _391
REMARK  166  A    between atoms: _393  and  _395
REMARK  167  A    between atoms: _395  and  _396
REMARK  168  A    between atoms: _395  and  _398
REMARK  169  A    between atoms: _401  and  _403
REMARK  170  A    between atoms: _403  and  _404
REMARK  171  A    between atoms: _403  and  _406
REMARK  172  A    between atoms: _406  and  _407
REMARK  173  A    between atoms: _407  and  _408
REMARK  174  A    between atoms: _410  and  _412
REMARK  175  A    between atoms: _412  and  _413
REMARK  176  A    between atoms: _412  and  _415
REMARK  177  A    between atoms: _418  and  _420
REMARK  178  A    between atoms: _420  and  _421
REMARK  179  A    between atoms: _420  and  _423
REMARK  180  A    between atoms: _423  and  _424
REMARK  181  A    between atoms: _424  and  _425
REMARK  182  A    between atoms: _428  and  _430
REMARK  183  A    between atoms: _430  and  _431
REMARK  184  A    between atoms: _430  and  _433
REMARK  185  A    between atoms: _433  and  _434
REMARK  186  A    between atoms: _434  and  _435
REMARK  187  A    between atoms: _435  and  _436
REMARK  188  A    between atoms: _436  and  _437
REMARK  189  A    between atoms: _441  and  _443
REMARK  190  A    between atoms: _443  and  _444
REMARK  191  A    between atoms: _443  and  _446
REMARK  192  A    between atoms: _446  and  _447
REMARK  193  A    between atoms: _450  and  _452
REMARK  194  A    between atoms: _452  and  _453
REMARK  195  A    between atoms: _456  and  _458
REMARK  196  A    between atoms: _458  and  _459
REMARK  197  A    between atoms: _458  and  _461
REMARK  198  A    between atoms: _464  and  _466
REMARK  199  A    between atoms: _466  and  _467
REMARK  200  A    between atoms: _466  and  _469
REMARK  201  A    between atoms: _469  and  _470
REMARK  202  A    between atoms: _473  and  _475
REMARK  203  A    between atoms: _475  and  _476
REMARK  204  A    between atoms: _478  and  _480
REMARK  205  A    between atoms: _480  and  _481
REMARK  206  A    between atoms: _480  and  _483
REMARK  207  A    between atoms: _483  and  _484
REMARK  208  A    between atoms: _484  and  _485
REMARK  209  A    between atoms: _485  and  _486
REMARK  210  A    between atoms: _495  and  _497
REMARK  211  A    between atoms: _497  and  _498
REMARK  212  A    between atoms: _497  and  _500
REMARK  213  A    between atoms: _500  and  _501
REMARK  214  A    between atoms: _506  and  _507
REMARK  215  A    between atoms: _509  and  _511
REMARK  216  A    between atoms: _511  and  _512
REMARK  217  A    between atoms: _511  and  _514
REMARK  218  A    between atoms: _514  and  _515
REMARK  219  A    between atoms: _520  and  _522
REMARK  220  A    between atoms: _522  and  _523
REMARK  221  A    between atoms: _522  and  _525
REMARK  222  A    between atoms: _525  and  _526
REMARK  223  A    between atoms: _526  and  _527
REMARK  224  A    between atoms: _530  and  _532
REMARK  225  A    between atoms: _532  and  _533
REMARK  226  A    between atoms: _532  and  _535
REMARK  227  A    between atoms: _535  and  _536
REMARK  228  A    between atoms: _539  and  _541
REMARK  229  A    between atoms: _541  and  _542
REMARK  230  A    between atoms: _541  and  _544
REMARK  231  A    between atoms: _544  and  _545
REMARK  232  A    between atoms: _545  and  _546
REMARK  233  A    between atoms: _551  and  _553
REMARK  234  A    between atoms: _553  and  _554
REMARK  235  A    between atoms: _553  and  _556
REMARK  236  A    between atoms: _556  and  _557
REMARK  237  A    between atoms: _560  and  _562
REMARK  238  A    between atoms: _562  and  _563
REMARK  239  A    between atoms: _562  and  _565
REMARK  240  A    between atoms: _565  and  _566
REMARK  241  A    between atoms: _569  and  _571
REMARK  242  A    between atoms: _571  and  _572
REMARK  243  A    between atoms: _571  and  _574
REMARK  244  A    between atoms: _574  and  _575
REMARK  245  A    between atoms: _578  and  _580
REMARK  246  A    between atoms: _580  and  _581
REMARK  247  A    between atoms: _580  and  _583
REMARK  248  A    between atoms: _583  and  _584
REMARK  249  A    between atoms: _587  and  _589
REMARK  250  A    between atoms: _589  and  _590
REMARK  251  A    between atoms: _589  and  _592
REMARK  252  A    between atoms: _592  and  _593
REMARK  253  A    between atoms: _593  and  _594
REMARK  254  A    between atoms: _594  and  _595
REMARK  255  A    between atoms: _604  and  _606
REMARK  256  A    between atoms: _606  and  _607
REMARK  257  A    between atoms: _606  and  _609
REMARK  258  A    between atoms: _609  and  _610
REMARK  259  A    between atoms: _615  and  _616
REMARK  260  A    between atoms: _618  and  _620
REMARK  261  A    between atoms: _620  and  _621
REMARK  262  A    between atoms: _620  and  _623
REMARK  263  A    between atoms: _623  and  _624
REMARK  264  A    between atoms: _627  and  _629
REMARK  265  A    between atoms: _629  and  _630
REMARK  266  A    between atoms: _629  and  _632
REMARK  267  A    between atoms: _634  and  _636
REMARK  268  A    between atoms: _636  and  _637
REMARK  269  A    between atoms: _639  and  _641
REMARK  270  A    between atoms: _641  and  _642
REMARK  271  A    between atoms: _641  and  _644
REMARK  272  A    between atoms: _644  and  _645
REMARK                            x       y       z     vdW  Elec       q    Type
REMARK                         _______ _______ _______ _____ _____    ______ ____
ROOT
ATOM      1  O   HOH     1      59.120  32.579  49.517  0.00  0.00    +0.000 OA
ENDROOT
TORSDOF 0
REMARK  Name = ../refined-set-2016/3juk/3juk_pocket.pdb
REMARK  272 active torsions:
REMARK  status: ('A' for Active; 'I' for Inactive)
REMARK    1  A    between atoms: _1  and  _3
REMARK    2  A    between atoms: _3  and  _4
REMARK    3  A    between atoms: _3  and  _6
REMARK    4  A    between atoms: _6  and  _7
REMARK    5  A    between atoms: _14  and  _15
REMARK    6  A    between atoms: _20  and  _22
REMARK    7  A    between atoms: _22  and  _23
REMARK    8  A    between atoms: _26  and  _28
REMARK    9  A    between atoms: _28  and  _29
REMARK   10  A    between atoms: _32  and  _34
REMARK   11  A    between atoms: _34  and  _35
REMARK   12  A    between atoms: _37  and  _39
REMARK   13  A    between atoms: _39  and  _40
REMARK   14  A    between atoms: _39  and  _42
REMARK   15  A    between atoms: _42  and  _43
REMARK   16  A    between atoms: _48  and  _49
REMARK   17  A    between atoms: _51  and  _53
REMARK   18  A    between atoms: _53  and  _54
REMARK   19  A    between atoms: _56  and  _58
REMARK   20  A    between atoms: _58  and  _59
REMARK   21  A    between atoms: _58  and  _61
REMARK   22  A    between atoms: _61  and  _62
REMARK   23  A    between atoms: _65  and  _67
REMARK   24  A    between atoms: _67  and  _68
REMARK   25  A    between atoms: _67  and  _70
REMARK   26  A    between atoms: _70  and  _71
REMARK   27  A    between atoms: _71  and  _72
REMARK   28  A    between atoms: _72  and  _73
REMARK   29  A    between atoms: _83  and  _84
REMARK   30  A    between atoms: _89  and  _91
REMARK   31  A    between atoms: _91  and  _92
REMARK   32  A    between atoms: _91  and  _94
REMARK   33  A    between atoms: _94  and  _95
REMARK   34  A    between atoms: _95  and  _96
REMARK   35  A    between atoms: _96  and  _97
REMARK   36  A    between atoms: _97  and  _98
REMARK   37  A    between atoms: _102  and  _104
REMARK   38  A    between atoms: _104  and  _105
REMARK   39  A    between atoms: _104  and  _107
REMARK   40  A    between atoms: _107  and  _108
REMARK   41  A    between atoms: _108  and  _109
REMARK   42  A    between atoms: _112  and  _114
REMARK   43  A    between atoms: _114  and  _115
REMARK   44  A    between atoms: _114  and  _117
REMARK   45  A    between atoms: _117  and  _118
REMARK   46  A    between atoms: _121  and  _123
REMARK   47  A    between atoms: _123  and  _124
REMARK   48  A    between atoms: _123  and  _126
REMARK   49  A    between atoms: _129  and  _131
REMARK   50  A    between atoms: _131  and  _132
REMARK   51  A    between atoms: _131  and  _134
REMARK   52  A    between atoms: _134  and  _135
REMARK   53  A    between atoms: _138  and  _140
REMARK   54  A    between atoms: _140  and  _141
REMARK   55  A    between atoms: _143  and  _145
REMARK   56  A    between atoms: _145  and  _146
REMARK   57  A    between atoms: _145  and  _148
REMARK   58  A    between atoms: _148  and  _149
REMARK   59  A    between atoms: _149  and  _150
REMARK   60  A    between atoms: _155  and  _157
REMARK   61  A    between atoms: _157  and  _158
REMARK   62  A    between atoms: _157  and  _160
REMARK   63  A    between atoms: _160  and  _161
REMARK   64  A    between atoms: _161  and  _162
REMARK   65  A    between atoms: _167  and  _169
REMARK   66  A    between atoms: _169  and  _170
REMARK   67  A    between atoms: _169  and  _172
REMARK   68  A    between atoms: _172  and  _173
REMARK   69  A    between atoms: _173  and  _174
REMARK   70  A    between atoms: _176  and  _178
REMARK   71  A    between atoms: _178  and  _179
REMARK   72  A    between atoms: _178  and  _181
REMARK   73  A    between atoms: _181  and  _182
REMARK   74  A    between atoms: _182  and  _183
REMARK   75  A    between atoms: _183  and  _184
REMARK   76  A    between atoms: _184  and  _185
REMARK   77  A    between atoms: _189  and  _191
REMARK   78  A    between atoms: _191  and  _192
REMARK   79  A    between atoms: _194  and  _196
REMARK   80  A    between atoms: _196  and  _197
REMARK   81  A    between atoms: _196  and  _199
REMARK   82  A    between atoms: _199  and  _200
REMARK   83  A    between atoms: _203  and  _205
REMARK   84  A    between atoms: _205  and  _206
REMARK   85  A    between atoms: _208  and  _210
REMARK   86  A    between atoms: _210  and  _211
REMARK   87  A    between atoms: _210  and  _213
REMARK   88  A    between atoms: _213  and  _214
REMARK   89  A    between atoms: _219  and  _221
REMARK   90  A    between atoms: _221  and  _222
REMARK   91  A    between atoms: _225  and  _227
REMARK   92  A    between atoms: _227  and  _228
REMARK   93  A    between atoms: _227  and  _230
REMARK   94  A    between atoms: _230  and  _231
REMARK   95  A    between atoms: _234  and  _236
REMARK   96  A    between atoms: _236  and  _237
REMARK   97  A    between atoms: _236  and  _239
REMARK   98  A    between atoms: _239  and  _240
REMARK   99  A    between atoms: _243  and  _245
REMARK  100  A    between atoms: _245  and  _246
REMARK  101  A    between atoms: _245  and  _248
REMARK  102  A    between atoms: _251  and  _253
REMARK  103  A    between atoms: _253  and  _254
REMARK  104  A    between atoms: _253  and  _256
REMARK  105  A    between atoms: _256  and  _257
REMARK  106  A    between atoms: _260  and  _262
REMARK  107  A    between atoms: _262  and  _263
REMARK  108  A    between atoms: _262  and  _265
REMARK  109  A    between atoms: _265  and  _266
REMARK  110  A    between atoms: _269  and  _271
REMARK  111  A    between atoms: _271  and  _272
REMARK  112  A    between atoms: _275  and  _277
REMARK  113  A    between atoms: _277  and  _278
REMARK  114  A    between atoms: _277  and  _280
REMARK  115  A    between atoms: _280  and  _281
REMARK  116  A    between atoms: _281  and  _282
REMARK  117  A    between atoms: _282  and  MG_647
REMARK  118  A    between atoms: _284  and  _286
REMARK  119  A    between atoms: _286  and  _287
REMARK  120  A    between atoms: _286  and  _289
REMARK  121  A    between atoms: _289  and  _290
REMARK  122  A    between atoms: _293  and  _295
REMARK  123  A    between atoms: _295  and  _296
REMARK  124  A    between atoms: _295  and  _298
REMARK  125  A    between atoms: _298  and  _299
REMARK  126  A    between atoms: _302  and  _304
REMARK  127  A    between atoms: _304  and  _305
REMARK  128  A    between atoms: _304  and  _307
REMARK  129  A    between atoms: _310  and  _312
REMARK  130  A    between atoms: _312  and  _313
REMARK  131  A    between atoms: _316  and  _318
REMARK  132  A    between atoms: _318  and  _319
REMARK  133  A    between atoms: _318  and  _321
REMARK  134  A    between atoms: _321  and  _322
REMARK  135  A    between atoms: _325  and  _327
REMARK  136  A    between atoms: _327  and  _328
REMARK  137  A    between atoms: _327  and  _330
REMARK  138  A    between atoms: _330  and  _331
REMARK  139  A    between atoms: _331  and  _332
REMARK  140  A    between atoms: _335  and  _337
REMARK  141  A    between atoms: _337  and  _338
REMARK  142  A    between atoms: _337  and  _340
REMARK  143  A    between atoms: _340  and  _341
REMARK  144  A    between atoms: _341  and  _342
REMARK  145  A    between atoms: _345  and  _347
REMARK  146  A    between atoms: _347  and  _348
REMARK  147  A    between atoms: _347  and  _350
REMARK  148  A    between atoms: _353  and  _355
REMARK  149  A    between atoms: _355  and  _356
REMARK  150  A    between atoms: _355  and  _358
REMARK  151  A    between atoms: _358  and  _359
REMARK  152  A    between atoms: _361  and  _363
REMARK  153  A    between atoms: _363  and  _364
REMARK  154  A    between atoms: _363  and  _366
REMARK  155  A    between atoms: _366  and  _367
REMARK  156  A    between atoms: _367  and  _368
REMARK  157  A    between atoms: _368  and  _369
REMARK  158  A    between atoms: _369  and  _370
REMARK  159  A    between atoms: _374  and  _376
REMARK  160  A    between atoms: _376  and  _377
REMARK  161  A    between atoms: _376  and  _379
REMARK  162  A    between atoms: _379  and  _380
REMARK  163  A    between atoms: _385  and  _386
REMARK  164  A    between atoms: _388  and  _390
REMARK  165  A    between atoms: _390  and  _391
REMARK  166  A    between atoms: _393  and  _395
REMARK  167  A    between atoms: _395  and  _396
REMARK  168  A    between atoms: _395  and  _398
REMARK  169  A    between atoms: _401  and  _403
REMARK  170  A    between atoms: _403  and  _404
REMARK  171  A    between atoms: _403  and  _406
REMARK  172  A    between atoms: _406  and  _407
REMARK  173  A    between atoms: _407  and  _408
REMARK  174  A    between atoms: _410  and  _412
REMARK  175  A    between atoms: _412  and  _413
REMARK  176  A    between atoms: _412  and  _415
REMARK  177  A    between atoms: _418  and  _420
REMARK  178  A    between atoms: _420  and  _421
REMARK  179  A    between atoms: _420  and  _423
REMARK  180  A    between atoms: _423  and  _424
REMARK  181  A    between atoms: _424  and  _425
REMARK  182  A    between atoms: _428  and  _430
REMARK  183  A    between atoms: _430  and  _431
REMARK  184  A    between atoms: _430  and  _433
REMARK  185  A    between atoms: _433  and  _434
REMARK  186  A    between atoms: _434  and  _435
REMARK  187  A    between atoms: _435  and  _436
REMARK  188  A    between atoms: _436  and  _437
REMARK  189  A    between atoms: _441  and  _443
REMARK  190  A    between atoms: _443  and  _444
REMARK  191  A    between atoms: _443  and  _446
REMARK  192  A    between atoms: _446  and  _447
REMARK  193  A    between atoms: _450  and  _452
REMARK  194  A    between atoms: _452  and  _453
REMARK  195  A    between atoms: _456  and  _458
REMARK  196  A    between atoms: _458  and  _459
REMARK  197  A    between atoms: _458  and  _461
REMARK  198  A    between atoms: _464  and  _466
REMARK  199  A    between atoms: _466  and  _467
REMARK  200  A    between atoms: _466  and  _469
REMARK  201  A    between atoms: _469  and  _470
REMARK  202  A    between atoms: _473  and  _475
REMARK  203  A    between atoms: _475  and  _476
REMARK  204  A    between atoms: _478  and  _480
REMARK  205  A    between atoms: _480  and  _481
REMARK  206  A    between atoms: _480  and  _483
REMARK  207  A    between atoms: _483  and  _484
REMARK  208  A    between atoms: _484  and  _485
REMARK  209  A    between atoms: _485  and  _486
REMARK  210  A    between atoms: _495  and  _497
REMARK  211  A    between atoms: _497  and  _498
REMARK  212  A    between atoms: _497  and  _500
REMARK  213  A    between atoms: _500  and  _501
REMARK  214  A    between atoms: _506  and  _507
REMARK  215  A    between atoms: _509  and  _511
REMARK  216  A    between atoms: _511  and  _512
REMARK  217  A    between atoms: _511  and  _514
REMARK  218  A    between atoms: _514  and  _515
REMARK  219  A    between atoms: _520  and  _522
REMARK  220  A    between atoms: _522  and  _523
REMARK  221  A    between atoms: _522  and  _525
REMARK  222  A    between atoms: _525  and  _526
REMARK  223  A    between atoms: _526  and  _527
REMARK  224  A    between atoms: _530  and  _532
REMARK  225  A    between atoms: _532  and  _533
REMARK  226  A    between atoms: _532  and  _535
REMARK  227  A    between atoms: _535  and  _536
REMARK  228  A    between atoms: _539  and  _541
REMARK  229  A    between atoms: _541  and  _542
REMARK  230  A    between atoms: _541  and  _544
REMARK  231  A    between atoms: _544  and  _545
REMARK  232  A    between atoms: _545  and  _546
REMARK  233  A    between atoms: _551  and  _553
REMARK  234  A    between atoms: _553  and  _554
REMARK  235  A    between atoms: _553  and  _556
REMARK  236  A    between atoms: _556  and  _557
REMARK  237  A    between atoms: _560  and  _562
REMARK  238  A    between atoms: _562  and  _563
REMARK  239  A    between atoms: _562  and  _565
REMARK  240  A    between atoms: _565  and  _566
REMARK  241  A    between atoms: _569  and  _571
REMARK  242  A    between atoms: _571  and  _572
REMARK  243  A    between atoms: _571  and  _574
REMARK  244  A    between atoms: _574  and  _575
REMARK  245  A    between atoms: _578  and  _580
REMARK  246  A    between atoms: _580  and  _581
REMARK  247  A    between atoms: _580  and  _583
REMARK  248  A    between atoms: _583  and  _584
REMARK  249  A    between atoms: _587  and  _589
REMARK  250  A    between atoms: _589  and  _590
REMARK  251  A    between atoms: _589  and  _592
REMARK  252  A    between atoms: _592  and  _593
REMARK  253  A    between atoms: _593  and  _594
REMARK  254  A    between atoms: _594  and  _595
REMARK  255  A    between atoms: _604  and  _606
REMARK  256  A    between atoms: _606  and  _607
REMARK  257  A    between atoms: _606  and  _609
REMARK  258  A    between atoms: _609  and  _610
REMARK  259  A    between atoms: _615  and  _616
REMARK  260  A    between atoms: _618  and  _620
REMARK  261  A    between atoms: _620  and  _621
REMARK  262  A    between atoms: _620  and  _623
REMARK  263  A    between atoms: _623  and  _624
REMARK  264  A    between atoms: _627  and  _629
REMARK  265  A    between atoms: _629  and  _630
REMARK  266  A    between atoms: _629  and  _632
REMARK  267  A    between atoms: _634  and  _636
REMARK  268  A    between atoms: _636  and  _637
REMARK  269  A    between atoms: _639  and  _641
REMARK  270  A    between atoms: _641  and  _642
REMARK  271  A    between atoms: _641  and  _644
REMARK  272  A    between atoms: _644  and  _645
REMARK                            x       y       z     vdW  Elec       q    Type
REMARK                         _______ _______ _______ _____ _____    ______ ____
ROOT
ATOM      1  O   HOH     1      54.462  49.030  53.267  0.00  0.00    +0.000 OA
ENDROOT
TORSDOF 0
REMARK  Name = ../refined-set-2016/3juk/3juk_pocket.pdb
REMARK  272 active torsions:
REMARK  status: ('A' for Active; 'I' for Inactive)
REMARK    1  A    between atoms: _1  and  _3
REMARK    2  A    between atoms: _3  and  _4
REMARK    3  A    between atoms: _3  and  _6
REMARK    4  A    between atoms: _6  and  _7
REMARK    5  A    between atoms: _14  and  _15
REMARK    6  A    between atoms: _20  and  _22
REMARK    7  A    between atoms: _22  and  _23
REMARK    8  A    between atoms: _26  and  _28
REMARK    9  A    between atoms: _28  and  _29
REMARK   10  A    between atoms: _32  and  _34
REMARK   11  A    between atoms: _34  and  _35
REMARK   12  A    between atoms: _37  and  _39
REMARK   13  A    between atoms: _39  and  _40
REMARK   14  A    between atoms: _39  and  _42
REMARK   15  A    between atoms: _42  and  _43
REMARK   16  A    between atoms: _48  and  _49
REMARK   17  A    between atoms: _51  and  _53
REMARK   18  A    between atoms: _53  and  _54
REMARK   19  A    between atoms: _56  and  _58
REMARK   20  A    between atoms: _58  and  _59
REMARK   21  A    between atoms: _58  and  _61
REMARK   22  A    between atoms: _61  and  _62
REMARK   23  A    between atoms: _65  and  _67
REMARK   24  A    between atoms: _67  and  _68
REMARK   25  A    between atoms: _67  and  _70
REMARK   26  A    between atoms: _70  and  _71
REMARK   27  A    between atoms: _71  and  _72
REMARK   28  A    between atoms: _72  and  _73
REMARK   29  A    between atoms: _83  and  _84
REMARK   30  A    between atoms: _89  and  _91
REMARK   31  A    between atoms: _91  and  _92
REMARK   32  A    between atoms: _91  and  _94
REMARK   33  A    between atoms: _94  and  _95
REMARK   34  A    between atoms: _95  and  _96
REMARK   35  A    between atoms: _96  and  _97
REMARK   36  A    between atoms: _97  and  _98
REMARK   37  A    between atoms: _102  and  _104
REMARK   38  A    between atoms: _104  and  _105
REMARK   39  A    between atoms: _104  and  _107
REMARK   40  A    between atoms: _107  and  _108
REMARK   41  A    between atoms: _108  and  _109
REMARK   42  A    between atoms: _112  and  _114
REMARK   43  A    between atoms: _114  and  _115
REMARK   44  A    between atoms: _114  and  _117
REMARK   45  A    between atoms: _117  and  _118
REMARK   46  A    between atoms: _121  and  _123
REMARK   47  A    between atoms: _123  and  _124
REMARK   48  A    between atoms: _123  and  _126
REMARK   49  A    between atoms: _129  and  _131
REMARK   50  A    between atoms: _131  and  _132
REMARK   51  A    between atoms: _131  and  _134
REMARK   52  A    between atoms: _134  and  _135
REMARK   53  A    between atoms: _138  and  _140
REMARK   54  A    between atoms: _140  and  _141
REMARK   55  A    between atoms: _143  and  _145
REMARK   56  A    between atoms: _145  and  _146
REMARK   57  A    between atoms: _145  and  _148
REMARK   58  A    between atoms: _148  and  _149
REMARK   59  A    between atoms: _149  and  _150
REMARK   60  A    between atoms: _155  and  _157
REMARK   61  A    between atoms: _157  and  _158
REMARK   62  A    between atoms: _157  and  _160
REMARK   63  A    between atoms: _160  and  _161
REMARK   64  A    between atoms: _161  and  _162
REMARK   65  A    between atoms: _167  and  _169
REMARK   66  A    between atoms: _169  and  _170
REMARK   67  A    between atoms: _169  and  _172
REMARK   68  A    between atoms: _172  and  _173
REMARK   69  A    between atoms: _173  and  _174
REMARK   70  A    between atoms: _176  and  _178
REMARK   71  A    between atoms: _178  and  _179
REMARK   72  A    between atoms: _178  and  _181
REMARK   73  A    between atoms: _181  and  _182
REMARK   74  A    between atoms: _182  and  _183
REMARK   75  A    between atoms: _183  and  _184
REMARK   76  A    between atoms: _184  and  _185
REMARK   77  A    between atoms: _189  and  _191
REMARK   78  A    between atoms: _191  and  _192
REMARK   79  A    between atoms: _194  and  _196
REMARK   80  A    between atoms: _196  and  _197
REMARK   81  A    between atoms: _196  and  _199
REMARK   82  A    between atoms: _199  and  _200
REMARK   83  A    between atoms: _203  and  _205
REMARK   84  A    between atoms: _205  and  _206
REMARK   85  A    between atoms: _208  and  _210
REMARK   86  A    between atoms: _210  and  _211
REMARK   87  A    between atoms: _210  and  _213
REMARK   88  A    between atoms: _213  and  _214
REMARK   89  A    between atoms: _219  and  _221
REMARK   90  A    between atoms: _221  and  _222
REMARK   91  A    between atoms: _225  and  _227
REMARK   92  A    between atoms: _227  and  _228
REMARK   93  A    between atoms: _227  and  _230
REMARK   94  A    between atoms: _230  and  _231
REMARK   95  A    between atoms: _234  and  _236
REMARK   96  A    between atoms: _236  and  _237
REMARK   97  A    between atoms: _236  and  _239
REMARK   98  A    between atoms: _239  and  _240
REMARK   99  A    between atoms: _243  and  _245
REMARK  100  A    between atoms: _245  and  _246
REMARK  101  A    between atoms: _245  and  _248
REMARK  102  A    between atoms: _251  and  _253
REMARK  103  A    between atoms: _253  and  _254
REMARK  104  A    between atoms: _253  and  _256
REMARK  105  A    between atoms: _256  and  _257
REMARK  106  A    between atoms: _260  and  _262
REMARK  107  A    between atoms: _262  and  _263
REMARK  108  A    between atoms: _262  and  _265
REMARK  109  A    between atoms: _265  and  _266
REMARK  110  A    between atoms: _269  and  _271
REMARK  111  A    between atoms: _271  and  _272
REMARK  112  A    between atoms: _275  and  _277
REMARK  113  A    between atoms: _277  and  _278
REMARK  114  A    between atoms: _277  and  _280
REMARK  115  A    between atoms: _280  and  _281
REMARK  116  A    between atoms: _281  and  _282
REMARK  117  A    between atoms: _282  and  MG_647
REMARK  118  A    between atoms: _284  and  _286
REMARK  119  A    between atoms: _286  and  _287
REMARK  120  A    between atoms: _286  and  _289
REMARK  121  A    between atoms: _289  and  _290
REMARK  122  A    between atoms: _293  and  _295
REMARK  123  A    between atoms: _295  and  _296
REMARK  124  A    between atoms: _295  and  _298
REMARK  125  A    between atoms: _298  and  _299
REMARK  126  A    between atoms: _302  and  _304
REMARK  127  A    between atoms: _304  and  _305
REMARK  128  A    between atoms: _304  and  _307
REMARK  129  A    between atoms: _310  and  _312
REMARK  130  A    between atoms: _312  and  _313
REMARK  131  A    between atoms: _316  and  _318
REMARK  132  A    between atoms: _318  and  _319
REMARK  133  A    between atoms: _318  and  _321
REMARK  134  A    between atoms: _321  and  _322
REMARK  135  A    between atoms: _325  and  _327
REMARK  136  A    between atoms: _327  and  _328
REMARK  137  A    between atoms: _327  and  _330
REMARK  138  A    between atoms: _330  and  _331
REMARK  139  A    between atoms: _331  and  _332
REMARK  140  A    between atoms: _335  and  _337
REMARK  141  A    between atoms: _337  and  _338
REMARK  142  A    between atoms: _337  and  _340
REMARK  143  A    between atoms: _340  and  _341
REMARK  144  A    between atoms: _341  and  _342
REMARK  145  A    between atoms: _345  and  _347
REMARK  146  A    between atoms: _347  and  _348
REMARK  147  A    between atoms: _347  and  _350
REMARK  148  A    between atoms: _353  and  _355
REMARK  149  A    between atoms: _355  and  _356
REMARK  150  A    between atoms: _355  and  _358
REMARK  151  A    between atoms: _358  and  _359
REMARK  152  A    between atoms: _361  and  _363
REMARK  153  A    between atoms: _363  and  _364
REMARK  154  A    between atoms: _363  and  _366
REMARK  155  A    between atoms: _366  and  _367
REMARK  156  A    between atoms: _367  and  _368
REMARK  157  A    between atoms: _368  and  _369
REMARK  158  A    between atoms: _369  and  _370
REMARK  159  A    between atoms: _374  and  _376
REMARK  160  A    between atoms: _376  and  _377
REMARK  161  A    between atoms: _376  and  _379
REMARK  162  A    between atoms: _379  and  _380
REMARK  163  A    between atoms: _385  and  _386
REMARK  164  A    between atoms: _388  and  _390
REMARK  165  A    between atoms: _390  and  _391
REMARK  166  A    between atoms: _393  and  _395
REMARK  167  A    between atoms: _395  and  _396
REMARK  168  A    between atoms: _395  and  _398
REMARK  169  A    between atoms: _401  and  _403
REMARK  170  A    between atoms: _403  and  _404
REMARK  171  A    between atoms: _403  and  _406
REMARK  172  A    between atoms: _406  and  _407
REMARK  173  A    between atoms: _407  and  _408
REMARK  174  A    between atoms: _410  and  _412
REMARK  175  A    between atoms: _412  and  _413
REMARK  176  A    between atoms: _412  and  _415
REMARK  177  A    between atoms: _418  and  _420
REMARK  178  A    between atoms: _420  and  _421
REMARK  179  A    between atoms: _420  and  _423
REMARK  180  A    between atoms: _423  and  _424
REMARK  181  A    between atoms: _424  and  _425
REMARK  182  A    between atoms: _428  and  _430
REMARK  183  A    between atoms: _430  and  _431
REMARK  184  A    between atoms: _430  and  _433
REMARK  185  A    between atoms: _433  and  _434
REMARK  186  A    between atoms: _434  and  _435
REMARK  187  A    between atoms: _435  and  _436
REMARK  188  A    between atoms: _436  and  _437
REMARK  189  A    between atoms: _441  and  _443
REMARK  190  A    between atoms: _443  and  _444
REMARK  191  A    between atoms: _443  and  _446
REMARK  192  A    between atoms: _446  and  _447
REMARK  193  A    between atoms: _450  and  _452
REMARK  194  A    between atoms: _452  and  _453
REMARK  195  A    between atoms: _456  and  _458
REMARK  196  A    between atoms: _458  and  _459
REMARK  197  A    between atoms: _458  and  _461
REMARK  198  A    between atoms: _464  and  _466
REMARK  199  A    between atoms: _466  and  _467
REMARK  200  A    between atoms: _466  and  _469
REMARK  201  A    between atoms: _469  and  _470
REMARK  202  A    between atoms: _473  and  _475
REMARK  203  A    between atoms: _475  and  _476
REMARK  204  A    between atoms: _478  and  _480
REMARK  205  A    between atoms: _480  and  _481
REMARK  206  A    between atoms: _480  and  _483
REMARK  207  A    between atoms: _483  and  _484
REMARK  208  A    between atoms: _484  and  _485
REMARK  209  A    between atoms: _485  and  _486
REMARK  210  A    between atoms: _495  and  _497
REMARK  211  A    between atoms: _497  and  _498
REMARK  212  A    between atoms: _497  and  _500
REMARK  213  A    between atoms: _500  and  _501
REMARK  214  A    between atoms: _506  and  _507
REMARK  215  A    between atoms: _509  and  _511
REMARK  216  A    between atoms: _511  and  _512
REMARK  217  A    between atoms: _511  and  _514
REMARK  218  A    between atoms: _514  and  _515
REMARK  219  A    between atoms: _520  and  _522
REMARK  220  A    between atoms: _522  and  _523
REMARK  221  A    between atoms: _522  and  _525
REMARK  222  A    between atoms: _525  and  _526
REMARK  223  A    between atoms: _526  and  _527
REMARK  224  A    between atoms: _530  and  _532
REMARK  225  A    between atoms: _532  and  _533
REMARK  226  A    between atoms: _532  and  _535
REMARK  227  A    between atoms: _535  and  _536
REMARK  228  A    between atoms: _539  and  _541
REMARK  229  A    between atoms: _541  and  _542
REMARK  230  A    between atoms: _541  and  _544
REMARK  231  A    between atoms: _544  and  _545
REMARK  232  A    between atoms: _545  and  _546
REMARK  233  A    between atoms: _551  and  _553
REMARK  234  A    between atoms: _553  and  _554
REMARK  235  A    between atoms: _553  and  _556
REMARK  236  A    between atoms: _556  and  _557
REMARK  237  A    between atoms: _560  and  _562
REMARK  238  A    between atoms: _562  and  _563
REMARK  239  A    between atoms: _562  and  _565
REMARK  240  A    between atoms: _565  and  _566
REMARK  241  A    between atoms: _569  and  _571
REMARK  242  A    between atoms: _571  and  _572
REMARK  243  A    between atoms: _571  and  _574
REMARK  244  A    between atoms: _574  and  _575
REMARK  245  A    between atoms: _578  and  _580
REMARK  246  A    between atoms: _580  and  _581
REMARK  247  A    between atoms: _580  and  _583
REMARK  248  A    between atoms: _583  and  _584
REMARK  249  A    between atoms: _587  and  _589
REMARK  250  A    between atoms: _589  and  _590
REMARK  251  A    between atoms: _589  and  _592
REMARK  252  A    between atoms: _592  and  _593
REMARK  253  A    between atoms: _593  and  _594
REMARK  254  A    between atoms: _594  and  _595
REMARK  255  A    between atoms: _604  and  _606
REMARK  256  A    between atoms: _606  and  _607
REMARK  257  A    between atoms: _606  and  _609
REMARK  258  A    between atoms: _609  and  _610
REMARK  259  A    between atoms: _615  and  _616
REMARK  260  A    between atoms: _618  and  _620
REMARK  261  A    between atoms: _620  and  _621
REMARK  262  A    between atoms: _620  and  _623
REMARK  263  A    between atoms: _623  and  _624
REMARK  264  A    between atoms: _627  and  _629
REMARK  265  A    between atoms: _629  and  _630
REMARK  266  A    between atoms: _629  and  _632
REMARK  267  A    between atoms: _634  and  _636
REMARK  268  A    between atoms: _636  and  _637
REMARK  269  A    between atoms: _639  and  _641
REMARK  270  A    between atoms: _641  and  _642
REMARK  271  A    between atoms: _641  and  _644
REMARK  272  A    between atoms: _644  and  _645
REMARK                            x       y       z     vdW  Elec       q    Type
REMARK                         _______ _______ _______ _____ _____    ______ ____
ROOT
ATOM      1  O   HOH     1      50.536  31.847  52.849  0.00  0.00    +0.000 OA
ENDROOT
TORSDOF 0
REMARK  Name = ../refined-set-2016/3juk/3juk_pocket.pdb
REMARK  272 active torsions:
REMARK  status: ('A' for Active; 'I' for Inactive)
REMARK    1  A    between atoms: _1  and  _3
REMARK    2  A    between atoms: _3  and  _4
REMARK    3  A    between atoms: _3  and  _6
REMARK    4  A    between atoms: _6  and  _7
REMARK    5  A    between atoms: _14  and  _15
REMARK    6  A    between atoms: _20  and  _22
REMARK    7  A    between atoms: _22  and  _23
REMARK    8  A    between atoms: _26  and  _28
REMARK    9  A    between atoms: _28  and  _29
REMARK   10  A    between atoms: _32  and  _34
REMARK   11  A    between atoms: _34  and  _35
REMARK   12  A    between atoms: _37  and  _39
REMARK   13  A    between atoms: _39  and  _40
REMARK   14  A    between atoms: _39  and  _42
REMARK   15  A    between atoms: _42  and  _43
REMARK   16  A    between atoms: _48  and  _49
REMARK   17  A    between atoms: _51  and  _53
REMARK   18  A    between atoms: _53  and  _54
REMARK   19  A    between atoms: _56  and  _58
REMARK   20  A    between atoms: _58  and  _59
REMARK   21  A    between atoms: _58  and  _61
REMARK   22  A    between atoms: _61  and  _62
REMARK   23  A    between atoms: _65  and  _67
REMARK   24  A    between atoms: _67  and  _68
REMARK   25  A    between atoms: _67  and  _70
REMARK   26  A    between atoms: _70  and  _71
REMARK   27  A    between atoms: _71  and  _72
REMARK   28  A    between atoms: _72  and  _73
REMARK   29  A    between atoms: _83  and  _84
REMARK   30  A    between atoms: _89  and  _91
REMARK   31  A    between atoms: _91  and  _92
REMARK   32  A    between atoms: _91  and  _94
REMARK   33  A    between atoms: _94  and  _95
REMARK   34  A    between atoms: _95  and  _96
REMARK   35  A    between atoms: _96  and  _97
REMARK   36  A    between atoms: _97  and  _98
REMARK   37  A    between atoms: _102  and  _104
REMARK   38  A    between atoms: _104  and  _105
REMARK   39  A    between atoms: _104  and  _107
REMARK   40  A    between atoms: _107  and  _108
REMARK   41  A    between atoms: _108  and  _109
REMARK   42  A    between atoms: _112  and  _114
REMARK   43  A    between atoms: _114  and  _115
REMARK   44  A    between atoms: _114  and  _117
REMARK   45  A    between atoms: _117  and  _118
REMARK   46  A    between atoms: _121  and  _123
REMARK   47  A    between atoms: _123  and  _124
REMARK   48  A    between atoms: _123  and  _126
REMARK   49  A    between atoms: _129  and  _131
REMARK   50  A    between atoms: _131  and  _132
REMARK   51  A    between atoms: _131  and  _134
REMARK   52  A    between atoms: _134  and  _135
REMARK   53  A    between atoms: _138  and  _140
REMARK   54  A    between atoms: _140  and  _141
REMARK   55  A    between atoms: _143  and  _145
REMARK   56  A    between atoms: _145  and  _146
REMARK   57  A    between atoms: _145  and  _148
REMARK   58  A    between atoms: _148  and  _149
REMARK   59  A    between atoms: _149  and  _150
REMARK   60  A    between atoms: _155  and  _157
REMARK   61  A    between atoms: _157  and  _158
REMARK   62  A    between atoms: _157  and  _160
REMARK   63  A    between atoms: _160  and  _161
REMARK   64  A    between atoms: _161  and  _162
REMARK   65  A    between atoms: _167  and  _169
REMARK   66  A    between atoms: _169  and  _170
REMARK   67  A    between atoms: _169  and  _172
REMARK   68  A    between atoms: _172  and  _173
REMARK   69  A    between atoms: _173  and  _174
REMARK   70  A    between atoms: _176  and  _178
REMARK   71  A    between atoms: _178  and  _179
REMARK   72  A    between atoms: _178  and  _181
REMARK   73  A    between atoms: _181  and  _182
REMARK   74  A    between atoms: _182  and  _183
REMARK   75  A    between atoms: _183  and  _184
REMARK   76  A    between atoms: _184  and  _185
REMARK   77  A    between atoms: _189  and  _191
REMARK   78  A    between atoms: _191  and  _192
REMARK   79  A    between atoms: _194  and  _196
REMARK   80  A    between atoms: _196  and  _197
REMARK   81  A    between atoms: _196  and  _199
REMARK   82  A    between atoms: _199  and  _200
REMARK   83  A    between atoms: _203  and  _205
REMARK   84  A    between atoms: _205  and  _206
REMARK   85  A    between atoms: _208  and  _210
REMARK   86  A    between atoms: _210  and  _211
REMARK   87  A    between atoms: _210  and  _213
REMARK   88  A    between atoms: _213  and  _214
REMARK   89  A    between atoms: _219  and  _221
REMARK   90  A    between atoms: _221  and  _222
REMARK   91  A    between atoms: _225  and  _227
REMARK   92  A    between atoms: _227  and  _228
REMARK   93  A    between atoms: _227  and  _230
REMARK   94  A    between atoms: _230  and  _231
REMARK   95  A    between atoms: _234  and  _236
REMARK   96  A    between atoms: _236  and  _237
REMARK   97  A    between atoms: _236  and  _239
REMARK   98  A    between atoms: _239  and  _240
REMARK   99  A    between atoms: _243  and  _245
REMARK  100  A    between atoms: _245  and  _246
REMARK  101  A    between atoms: _245  and  _248
REMARK  102  A    between atoms: _251  and  _253
REMARK  103  A    between atoms: _253  and  _254
REMARK  104  A    between atoms: _253  and  _256
REMARK  105  A    between atoms: _256  and  _257
REMARK  106  A    between atoms: _260  and  _262
REMARK  107  A    between atoms: _262  and  _263
REMARK  108  A    between atoms: _262  and  _265
REMARK  109  A    between atoms: _265  and  _266
REMARK  110  A    between atoms: _269  and  _271
REMARK  111  A    between atoms: _271  and  _272
REMARK  112  A    between atoms: _275  and  _277
REMARK  113  A    between atoms: _277  and  _278
REMARK  114  A    between atoms: _277  and  _280
REMARK  115  A    between atoms: _280  and  _281
REMARK  116  A    between atoms: _281  and  _282
REMARK  117  A    between atoms: _282  and  MG_647
REMARK  118  A    between atoms: _284  and  _286
REMARK  119  A    between atoms: _286  and  _287
REMARK  120  A    between atoms: _286  and  _289
REMARK  121  A    between atoms: _289  and  _290
REMARK  122  A    between atoms: _293  and  _295
REMARK  123  A    between atoms: _295  and  _296
REMARK  124  A    between atoms: _295  and  _298
REMARK  125  A    between atoms: _298  and  _299
REMARK  126  A    between atoms: _302  and  _304
REMARK  127  A    between atoms: _304  and  _305
REMARK  128  A    between atoms: _304  and  _307
REMARK  129  A    between atoms: _310  and  _312
REMARK  130  A    between atoms: _312  and  _313
REMARK  131  A    between atoms: _316  and  _318
REMARK  132  A    between atoms: _318  and  _319
REMARK  133  A    between atoms: _318  and  _321
REMARK  134  A    between atoms: _321  and  _322
REMARK  135  A    between atoms: _325  and  _327
REMARK  136  A    between atoms: _327  and  _328
REMARK  137  A    between atoms: _327  and  _330
REMARK  138  A    between atoms: _330  and  _331
REMARK  139  A    between atoms: _331  and  _332
REMARK  140  A    between atoms: _335  and  _337
REMARK  141  A    between atoms: _337  and  _338
REMARK  142  A    between atoms: _337  and  _340
REMARK  143  A    between atoms: _340  and  _341
REMARK  144  A    between atoms: _341  and  _342
REMARK  145  A    between atoms: _345  and  _347
REMARK  146  A    between atoms: _347  and  _348
REMARK  147  A    between atoms: _347  and  _350
REMARK  148  A    between atoms: _353  and  _355
REMARK  149  A    between atoms: _355  and  _356
REMARK  150  A    between atoms: _355  and  _358
REMARK  151  A    between atoms: _358  and  _359
REMARK  152  A    between atoms: _361  and  _363
REMARK  153  A    between atoms: _363  and  _364
REMARK  154  A    between atoms: _363  and  _366
REMARK  155  A    between atoms: _366  and  _367
REMARK  156  A    between atoms: _367  and  _368
REMARK  157  A    between atoms: _368  and  _369
REMARK  158  A    between atoms: _369  and  _370
REMARK  159  A    between atoms: _374  and  _376
REMARK  160  A    between atoms: _376  and  _377
REMARK  161  A    between atoms: _376  and  _379
REMARK  162  A    between atoms: _379  and  _380
REMARK  163  A    between atoms: _385  and  _386
REMARK  164  A    between atoms: _388  and  _390
REMARK  165  A    between atoms: _390  and  _391
REMARK  166  A    between atoms: _393  and  _395
REMARK  167  A    between atoms: _395  and  _396
REMARK  168  A    between atoms: _395  and  _398
REMARK  169  A    between atoms: _401  and  _403
REMARK  170  A    between atoms: _403  and  _404
REMARK  171  A    between atoms: _403  and  _406
REMARK  172  A    between atoms: _406  and  _407
REMARK  173  A    between atoms: _407  and  _408
REMARK  174  A    between atoms: _410  and  _412
REMARK  175  A    between atoms: _412  and  _413
REMARK  176  A    between atoms: _412  and  _415
REMARK  177  A    between atoms: _418  and  _420
REMARK  178  A    between atoms: _420  and  _421
REMARK  179  A    between atoms: _420  and  _423
REMARK  180  A    between atoms: _423  and  _424
REMARK  181  A    between atoms: _424  and  _425
REMARK  182  A    between atoms: _428  and  _430
REMARK  183  A    between atoms: _430  and  _431
REMARK  184  A    between atoms: _430  and  _433
REMARK  185  A    between atoms: _433  and  _434
REMARK  186  A    between atoms: _434  and  _435
REMARK  187  A    between atoms: _435  and  _436
REMARK  188  A    between atoms: _436  and  _437
REMARK  189  A    between atoms: _441  and  _443
REMARK  190  A    between atoms: _443  and  _444
REMARK  191  A    between atoms: _443  and  _446
REMARK  192  A    between atoms: _446  and  _447
REMARK  193  A    between atoms: _450  and  _452
REMARK  194  A    between atoms: _452  and  _453
REMARK  195  A    between atoms: _456  and  _458
REMARK  196  A    between atoms: _458  and  _459
REMARK  197  A    between atoms: _458  and  _461
REMARK  198  A    between atoms: _464  and  _466
REMARK  199  A    between atoms: _466  and  _467
REMARK  200  A    between atoms: _466  and  _469
REMARK  201  A    between atoms: _469  and  _470
REMARK  202  A    between atoms: _473  and  _475
REMARK  203  A    between atoms: _475  and  _476
REMARK  204  A    between atoms: _478  and  _480
REMARK  205  A    between atoms: _480  and  _481
REMARK  206  A    between atoms: _480  and  _483
REMARK  207  A    between atoms: _483  and  _484
REMARK  208  A    between atoms: _484  and  _485
REMARK  209  A    between atoms: _485  and  _486
REMARK  210  A    between atoms: _495  and  _497
REMARK  211  A    between atoms: _497  and  _498
REMARK  212  A    between atoms: _497  and  _500
REMARK  213  A    between atoms: _500  and  _501
REMARK  214  A    between atoms: _506  and  _507
REMARK  215  A    between atoms: _509  and  _511
REMARK  216  A    between atoms: _511  and  _512
REMARK  217  A    between atoms: _511  and  _514
REMARK  218  A    between atoms: _514  and  _515
REMARK  219  A    between atoms: _520  and  _522
REMARK  220  A    between atoms: _522  and  _523
REMARK  221  A    between atoms: _522  and  _525
REMARK  222  A    between atoms: _525  and  _526
REMARK  223  A    between atoms: _526  and  _527
REMARK  224  A    between atoms: _530  and  _532
REMARK  225  A    between atoms: _532  and  _533
REMARK  226  A    between atoms: _532  and  _535
REMARK  227  A    between atoms: _535  and  _536
REMARK  228  A    between atoms: _539  and  _541
REMARK  229  A    between atoms: _541  and  _542
REMARK  230  A    between atoms: _541  and  _544
REMARK  231  A    between atoms: _544  and  _545
REMARK  232  A    between atoms: _545  and  _546
REMARK  233  A    between atoms: _551  and  _553
REMARK  234  A    between atoms: _553  and  _554
REMARK  235  A    between atoms: _553  and  _556
REMARK  236  A    between atoms: _556  and  _557
REMARK  237  A    between atoms: _560  and  _562
REMARK  238  A    between atoms: _562  and  _563
REMARK  239  A    between atoms: _562  and  _565
REMARK  240  A    between atoms: _565  and  _566
REMARK  241  A    between atoms: _569  and  _571
REMARK  242  A    between atoms: _571  and  _572
REMARK  243  A    between atoms: _571  and  _574
REMARK  244  A    between atoms: _574  and  _575
REMARK  245  A    between atoms: _578  and  _580
REMARK  246  A    between atoms: _580  and  _581
REMARK  247  A    between atoms: _580  and  _583
REMARK  248  A    between atoms: _583  and  _584
REMARK  249  A    between atoms: _587  and  _589
REMARK  250  A    between atoms: _589  and  _590
REMARK  251  A    between atoms: _589  and  _592
REMARK  252  A    between atoms: _592  and  _593
REMARK  253  A    between atoms: _593  and  _594
REMARK  254  A    between atoms: _594  and  _595
REMARK  255  A    between atoms: _604  and  _606
REMARK  256  A    between atoms: _606  and  _607
REMARK  257  A    between atoms: _606  and  _609
REMARK  258  A    between atoms: _609  and  _610
REMARK  259  A    between atoms: _615  and  _616
REMARK  260  A    between atoms: _618  and  _620
REMARK  261  A    between atoms: _620  and  _621
REMARK  262  A    between atoms: _620  and  _623
REMARK  263  A    between atoms: _623  and  _624
REMARK  264  A    between atoms: _627  and  _629
REMARK  265  A    between atoms: _629  and  _630
REMARK  266  A    between atoms: _629  and  _632
REMARK  267  A    between atoms: _634  and  _636
REMARK  268  A    between atoms: _636  and  _637
REMARK  269  A    between atoms: _639  and  _641
REMARK  270  A    between atoms: _641  and  _642
REMARK  271  A    between atoms: _641  and  _644
REMARK  272  A    between atoms: _644  and  _645
REMARK                            x       y       z     vdW  Elec       q    Type
REMARK                         _______ _______ _______ _____ _____    ______ ____
ROOT
ATOM      1  O   HOH     1      63.196  37.159  50.198  0.00  0.00    +0.000 OA
ENDROOT
TORSDOF 0
