REMARK  Name = ../refined-set-2016/3pb8/3pb8_pocket.pdb
REMARK  128 active torsions:
REMARK  status: ('A' for Active; 'I' for Inactive)
REMARK    1  A    between atoms: _1  and  _3
REMARK    2  A    between atoms: _3  and  _4
REMARK    3  A    between atoms: _3  and  _6
REMARK    4  A    between atoms: _6  and  _7
REMARK    5  A    between atoms: _12  and  _14
REMARK    6  A    between atoms: _14  and  _15
REMARK    7  A    between atoms: _14  and  _17
REMARK    8  A    between atoms: _17  and  _18
REMARK    9  A    between atoms: _21  and  _23
REMARK   10  A    between atoms: _23  and  _24
REMARK   11  A    between atoms: _23  and  _26
REMARK   12  A    between atoms: _26  and  _27
REMARK   13  A    between atoms: _27  and  _28
REMARK   14  A    between atoms: _28  and  _29
REMARK   15  A    between atoms: _29  and  _30
REMARK   16  A    between atoms: _34  and  _36
REMARK   17  A    between atoms: _36  and  _37
REMARK   18  A    between atoms: _36  and  _39
REMARK   19  A    between atoms: _39  and  _40
REMARK   20  A    between atoms: _46  and  _48
REMARK   21  A    between atoms: _48  and  _49
REMARK   22  A    between atoms: _48  and  _51
REMARK   23  A    between atoms: _51  and  _52
REMARK   24  A    between atoms: _55  and  _57
REMARK   25  A    between atoms: _57  and  _58
REMARK   26  A    between atoms: _57  and  _60
REMARK   27  A    between atoms: _60  and  _61
REMARK   28  A    between atoms: _61  and  _63
REMARK   29  A    between atoms: _63  and  ZN_291
REMARK   30  A    between atoms: _64  and  _66
REMARK   31  A    between atoms: _66  and  _67
REMARK   32  A    between atoms: _66  and  _69
REMARK   33  A    between atoms: _69  and  _70
REMARK   34  A    between atoms: _72  and  _74
REMARK   35  A    between atoms: _74  and  _75
REMARK   36  A    between atoms: _74  and  _77
REMARK   37  A    between atoms: _77  and  _78
REMARK   38  A    between atoms: _78  and  _79
REMARK   39  A    between atoms: _82  and  _84
REMARK   40  A    between atoms: _84  and  _85
REMARK   41  A    between atoms: _84  and  _87
REMARK   42  A    between atoms: _87  and  _88
REMARK   43  A    between atoms: _88  and  _89
REMARK   44  A    between atoms: _89  and  _91
REMARK   45  A    between atoms: _91  and  ZN_291
REMARK   46  A    between atoms: _92  and  _94
REMARK   47  A    between atoms: _94  and  _95
REMARK   48  A    between atoms: _98  and  _100
REMARK   49  A    between atoms: _100  and  _101
REMARK   50  A    between atoms: _100  and  _103
REMARK   51  A    between atoms: _103  and  _104
REMARK   52  A    between atoms: _106  and  _108
REMARK   53  A    between atoms: _108  and  _109
REMARK   54  A    between atoms: _108  and  _111
REMARK   55  A    between atoms: _111  and  _112
REMARK   56  A    between atoms: _115  and  _117
REMARK   57  A    between atoms: _117  and  _118
REMARK   58  A    between atoms: _117  and  _120
REMARK   59  A    between atoms: _120  and  _121
REMARK   60  A    between atoms: _124  and  _126
REMARK   61  A    between atoms: _126  and  _127
REMARK   62  A    between atoms: _126  and  _129
REMARK   63  A    between atoms: _129  and  _130
REMARK   64  A    between atoms: _133  and  _135
REMARK   65  A    between atoms: _135  and  _136
REMARK   66  A    between atoms: _135  and  _138
REMARK   67  A    between atoms: _138  and  _139
REMARK   68  A    between atoms: _142  and  _144
REMARK   69  A    between atoms: _144  and  _145
REMARK   70  A    between atoms: _144  and  _147
REMARK   71  A    between atoms: _147  and  _148
REMARK   72  A    between atoms: _151  and  _153
REMARK   73  A    between atoms: _153  and  _154
REMARK   74  A    between atoms: _153  and  _156
REMARK   75  A    between atoms: _156  and  _157
REMARK   76  A    between atoms: _160  and  _162
REMARK   77  A    between atoms: _162  and  _163
REMARK   78  A    between atoms: _162  and  _165
REMARK   79  A    between atoms: _165  and  _166
REMARK   80  A    between atoms: _168  and  _170
REMARK   81  A    between atoms: _170  and  _171
REMARK   82  A    between atoms: _170  and  _173
REMARK   83  A    between atoms: _176  and  _178
REMARK   84  A    between atoms: _178  and  _179
REMARK   85  A    between atoms: _178  and  _181
REMARK   86  A    between atoms: _181  and  _182
REMARK   87  A    between atoms: _182  and  _183
REMARK   88  A    between atoms: _186  and  _188
REMARK   89  A    between atoms: _188  and  _189
REMARK   90  A    between atoms: _188  and  _191
REMARK   91  A    between atoms: _191  and  _192
REMARK   92  A    between atoms: _195  and  _197
REMARK   93  A    between atoms: _197  and  _198
REMARK   94  A    between atoms: _197  and  _200
REMARK   95  A    between atoms: _200  and  _201
REMARK   96  A    between atoms: _204  and  _206
REMARK   97  A    between atoms: _206  and  _207
REMARK   98  A    between atoms: _206  and  _209
REMARK   99  A    between atoms: _209  and  _210
REMARK  100  A    between atoms: _215  and  _217
REMARK  101  A    between atoms: _217  and  _218
REMARK  102  A    between atoms: _217  and  _220
REMARK  103  A    between atoms: _220  and  _221
REMARK  104  A    between atoms: _226  and  _228
REMARK  105  A    between atoms: _228  and  _229
REMARK  106  A    between atoms: _228  and  _231
REMARK  107  A    between atoms: _231  and  _232
REMARK  108  A    between atoms: _235  and  _237
REMARK  109  A    between atoms: _237  and  _238
REMARK  110  A    between atoms: _237  and  _240
REMARK  111  A    between atoms: _240  and  _241
REMARK  112  A    between atoms: _243  and  _245
REMARK  113  A    between atoms: _245  and  _246
REMARK  114  A    between atoms: _245  and  _248
REMARK  115  A    between atoms: _248  and  _249
REMARK  116  A    between atoms: _255  and  _257
REMARK  117  A    between atoms: _257  and  _258
REMARK  118  A    between atoms: _257  and  _260
REMARK  119  A    between atoms: _260  and  _261
REMARK  120  A    between atoms: _271  and  _273
REMARK  121  A    between atoms: _273  and  _274
REMARK  122  A    between atoms: _273  and  _276
REMARK  123  A    between atoms: _276  and  _277
REMARK  124  A    between atoms: _281  and  ZN_291
REMARK  125  A    between atoms: _282  and  _284
REMARK  126  A    between atoms: _284  and  _285
REMARK  127  A    between atoms: _284  and  _287
REMARK  128  A    between atoms: _287  and  _288
REMARK                            x       y       z     vdW  Elec       q    Type
REMARK                         _______ _______ _______ _____ _____    ______ ____
ROOT
ATOM      1  CB  HIS A   1     -12.356  -9.353   9.977  0.00  0.00    +0.072 C 
ENDROOT
BRANCH   1   2
ATOM      2  CG  HIS A   1     -13.673 -10.047   9.728  0.00  0.00    +0.082 A 
ATOM      3  CD2 HIS A   1     -14.916  -9.902  10.282  0.00  0.00    +0.115 A 
ATOM      4  NE2 HIS A   1     -15.730 -10.808   9.660  0.00  0.00    -0.221 NA
ATOM      5  CE1 HIS A   1     -15.038 -11.506   8.798  0.00  0.00    +0.199 A 
ATOM      6  ND1 HIS A   1     -13.793 -11.077   8.812  0.00  0.00    -0.227 NA
ENDBRANCH   1   2
BRANCH   1   7
ATOM      7  CA  HIS A   1     -12.118  -8.079   9.150  0.00  0.00    +0.139 C 
BRANCH   7   8
ATOM      8  N   HIS A   1     -12.801  -6.899   9.714  0.00  0.00    -0.239 NA
ATOM      9  H   HIS A   1     -13.827  -6.924   9.879  0.00  0.00    +0.142 HD
ENDBRANCH   7   8
BRANCH   7  10
ATOM     10  C   HIS A   1     -12.481  -8.243   7.674  0.00  0.00    +0.224 C 
ATOM     11  O   HIS A   1     -13.645  -8.093   7.306  0.00  0.00    -0.287 OA
ENDBRANCH   7  10
ENDBRANCH   1   7
TORSDOF 4
REMARK  Name = ../refined-set-2016/3pb8/3pb8_pocket.pdb
REMARK  128 active torsions:
REMARK  status: ('A' for Active; 'I' for Inactive)
REMARK    1  A    between atoms: _1  and  _3
REMARK    2  A    between atoms: _3  and  _4
REMARK    3  A    between atoms: _3  and  _6
REMARK    4  A    between atoms: _6  and  _7
REMARK    5  A    between atoms: _12  and  _14
REMARK    6  A    between atoms: _14  and  _15
REMARK    7  A    between atoms: _14  and  _17
REMARK    8  A    between atoms: _17  and  _18
REMARK    9  A    between atoms: _21  and  _23
REMARK   10  A    between atoms: _23  and  _24
REMARK   11  A    between atoms: _23  and  _26
REMARK   12  A    between atoms: _26  and  _27
REMARK   13  A    between atoms: _27  and  _28
REMARK   14  A    between atoms: _28  and  _29
REMARK   15  A    between atoms: _29  and  _30
REMARK   16  A    between atoms: _34  and  _36
REMARK   17  A    between atoms: _36  and  _37
REMARK   18  A    between atoms: _36  and  _39
REMARK   19  A    between atoms: _39  and  _40
REMARK   20  A    between atoms: _46  and  _48
REMARK   21  A    between atoms: _48  and  _49
REMARK   22  A    between atoms: _48  and  _51
REMARK   23  A    between atoms: _51  and  _52
REMARK   24  A    between atoms: _55  and  _57
REMARK   25  A    between atoms: _57  and  _58
REMARK   26  A    between atoms: _57  and  _60
REMARK   27  A    between atoms: _60  and  _61
REMARK   28  A    between atoms: _61  and  _63
REMARK   29  A    between atoms: _63  and  ZN_291
REMARK   30  A    between atoms: _64  and  _66
REMARK   31  A    between atoms: _66  and  _67
REMARK   32  A    between atoms: _66  and  _69
REMARK   33  A    between atoms: _69  and  _70
REMARK   34  A    between atoms: _72  and  _74
REMARK   35  A    between atoms: _74  and  _75
REMARK   36  A    between atoms: _74  and  _77
REMARK   37  A    between atoms: _77  and  _78
REMARK   38  A    between atoms: _78  and  _79
REMARK   39  A    between atoms: _82  and  _84
REMARK   40  A    between atoms: _84  and  _85
REMARK   41  A    between atoms: _84  and  _87
REMARK   42  A    between atoms: _87  and  _88
REMARK   43  A    between atoms: _88  and  _89
REMARK   44  A    between atoms: _89  and  _91
REMARK   45  A    between atoms: _91  and  ZN_291
REMARK   46  A    between atoms: _92  and  _94
REMARK   47  A    between atoms: _94  and  _95
REMARK   48  A    between atoms: _98  and  _100
REMARK   49  A    between atoms: _100  and  _101
REMARK   50  A    between atoms: _100  and  _103
REMARK   51  A    between atoms: _103  and  _104
REMARK   52  A    between atoms: _106  and  _108
REMARK   53  A    between atoms: _108  and  _109
REMARK   54  A    between atoms: _108  and  _111
REMARK   55  A    between atoms: _111  and  _112
REMARK   56  A    between atoms: _115  and  _117
REMARK   57  A    between atoms: _117  and  _118
REMARK   58  A    between atoms: _117  and  _120
REMARK   59  A    between atoms: _120  and  _121
REMARK   60  A    between atoms: _124  and  _126
REMARK   61  A    between atoms: _126  and  _127
REMARK   62  A    between atoms: _126  and  _129
REMARK   63  A    between atoms: _129  and  _130
REMARK   64  A    between atoms: _133  and  _135
REMARK   65  A    between atoms: _135  and  _136
REMARK   66  A    between atoms: _135  and  _138
REMARK   67  A    between atoms: _138  and  _139
REMARK   68  A    between atoms: _142  and  _144
REMARK   69  A    between atoms: _144  and  _145
REMARK   70  A    between atoms: _144  and  _147
REMARK   71  A    between atoms: _147  and  _148
REMARK   72  A    between atoms: _151  and  _153
REMARK   73  A    between atoms: _153  and  _154
REMARK   74  A    between atoms: _153  and  _156
REMARK   75  A    between atoms: _156  and  _157
REMARK   76  A    between atoms: _160  and  _162
REMARK   77  A    between atoms: _162  and  _163
REMARK   78  A    between atoms: _162  and  _165
REMARK   79  A    between atoms: _165  and  _166
REMARK   80  A    between atoms: _168  and  _170
REMARK   81  A    between atoms: _170  and  _171
REMARK   82  A    between atoms: _170  and  _173
REMARK   83  A    between atoms: _176  and  _178
REMARK   84  A    between atoms: _178  and  _179
REMARK   85  A    between atoms: _178  and  _181
REMARK   86  A    between atoms: _181  and  _182
REMARK   87  A    between atoms: _182  and  _183
REMARK   88  A    between atoms: _186  and  _188
REMARK   89  A    between atoms: _188  and  _189
REMARK   90  A    between atoms: _188  and  _191
REMARK   91  A    between atoms: _191  and  _192
REMARK   92  A    between atoms: _195  and  _197
REMARK   93  A    between atoms: _197  and  _198
REMARK   94  A    between atoms: _197  and  _200
REMARK   95  A    between atoms: _200  and  _201
REMARK   96  A    between atoms: _204  and  _206
REMARK   97  A    between atoms: _206  and  _207
REMARK   98  A    between atoms: _206  and  _209
REMARK   99  A    between atoms: _209  and  _210
REMARK  100  A    between atoms: _215  and  _217
REMARK  101  A    between atoms: _217  and  _218
REMARK  102  A    between atoms: _217  and  _220
REMARK  103  A    between atoms: _220  and  _221
REMARK  104  A    between atoms: _226  and  _228
REMARK  105  A    between atoms: _228  and  _229
REMARK  106  A    between atoms: _228  and  _231
REMARK  107  A    between atoms: _231  and  _232
REMARK  108  A    between atoms: _235  and  _237
REMARK  109  A    between atoms: _237  and  _238
REMARK  110  A    between atoms: _237  and  _240
REMARK  111  A    between atoms: _240  and  _241
REMARK  112  A    between atoms: _243  and  _245
REMARK  113  A    between atoms: _245  and  _246
REMARK  114  A    between atoms: _245  and  _248
REMARK  115  A    between atoms: _248  and  _249
REMARK  116  A    between atoms: _255  and  _257
REMARK  117  A    between atoms: _257  and  _258
REMARK  118  A    between atoms: _257  and  _260
REMARK  119  A    between atoms: _260  and  _261
REMARK  120  A    between atoms: _271  and  _273
REMARK  121  A    between atoms: _273  and  _274
REMARK  122  A    between atoms: _273  and  _276
REMARK  123  A    between atoms: _276  and  _277
REMARK  124  A    between atoms: _281  and  ZN_291
REMARK  125  A    between atoms: _282  and  _284
REMARK  126  A    between atoms: _284  and  _285
REMARK  127  A    between atoms: _284  and  _287
REMARK  128  A    between atoms: _287  and  _288
REMARK                            x       y       z     vdW  Elec       q    Type
REMARK                         _______ _______ _______ _____ _____    ______ ____
ROOT
ATOM      1  CA  ASP A   1     -11.552 -12.563   5.440  0.00  0.00    +0.144 C 
ENDROOT
BRANCH   1   2
ATOM      2  N   ASP A   1     -11.406 -11.167   5.798  0.00  0.00    -0.239 NA
ATOM      3  H   ASP A   1     -10.980 -10.909   6.711  0.00  0.00    +0.142 HD
ENDBRANCH   1   2
BRANCH   1   4
ATOM      4  C   ASP A   1     -13.000 -12.943   5.460  0.00  0.00    +0.225 C 
ATOM      5  O   ASP A   1     -13.848 -12.323   6.140  0.00  0.00    -0.287 OA
ENDBRANCH   1   4
BRANCH   1   6
ATOM      6  CB  ASP A   1     -10.795 -13.493   6.397  0.00  0.00    +0.139 C 
BRANCH   6   7
ATOM      7  CG  ASP A   1     -11.252 -13.398   7.850  0.00  0.00    +0.367 C 
ATOM      8  OD2 ASP A   1     -11.464 -14.465   8.457  0.00  0.00    -0.246 OA
ATOM      9  OD1 ASP A   1     -11.347 -12.263   8.372  0.00  0.00    -0.246 OA
ENDBRANCH   6   7
ENDBRANCH   1   6
TORSDOF 4
REMARK  Name = ../refined-set-2016/3pb8/3pb8_pocket.pdb
REMARK  128 active torsions:
REMARK  status: ('A' for Active; 'I' for Inactive)
REMARK    1  A    between atoms: _1  and  _3
REMARK    2  A    between atoms: _3  and  _4
REMARK    3  A    between atoms: _3  and  _6
REMARK    4  A    between atoms: _6  and  _7
REMARK    5  A    between atoms: _12  and  _14
REMARK    6  A    between atoms: _14  and  _15
REMARK    7  A    between atoms: _14  and  _17
REMARK    8  A    between atoms: _17  and  _18
REMARK    9  A    between atoms: _21  and  _23
REMARK   10  A    between atoms: _23  and  _24
REMARK   11  A    between atoms: _23  and  _26
REMARK   12  A    between atoms: _26  and  _27
REMARK   13  A    between atoms: _27  and  _28
REMARK   14  A    between atoms: _28  and  _29
REMARK   15  A    between atoms: _29  and  _30
REMARK   16  A    between atoms: _34  and  _36
REMARK   17  A    between atoms: _36  and  _37
REMARK   18  A    between atoms: _36  and  _39
REMARK   19  A    between atoms: _39  and  _40
REMARK   20  A    between atoms: _46  and  _48
REMARK   21  A    between atoms: _48  and  _49
REMARK   22  A    between atoms: _48  and  _51
REMARK   23  A    between atoms: _51  and  _52
REMARK   24  A    between atoms: _55  and  _57
REMARK   25  A    between atoms: _57  and  _58
REMARK   26  A    between atoms: _57  and  _60
REMARK   27  A    between atoms: _60  and  _61
REMARK   28  A    between atoms: _61  and  _63
REMARK   29  A    between atoms: _63  and  ZN_291
REMARK   30  A    between atoms: _64  and  _66
REMARK   31  A    between atoms: _66  and  _67
REMARK   32  A    between atoms: _66  and  _69
REMARK   33  A    between atoms: _69  and  _70
REMARK   34  A    between atoms: _72  and  _74
REMARK   35  A    between atoms: _74  and  _75
REMARK   36  A    between atoms: _74  and  _77
REMARK   37  A    between atoms: _77  and  _78
REMARK   38  A    between atoms: _78  and  _79
REMARK   39  A    between atoms: _82  and  _84
REMARK   40  A    between atoms: _84  and  _85
REMARK   41  A    between atoms: _84  and  _87
REMARK   42  A    between atoms: _87  and  _88
REMARK   43  A    between atoms: _88  and  _89
REMARK   44  A    between atoms: _89  and  _91
REMARK   45  A    between atoms: _91  and  ZN_291
REMARK   46  A    between atoms: _92  and  _94
REMARK   47  A    between atoms: _94  and  _95
REMARK   48  A    between atoms: _98  and  _100
REMARK   49  A    between atoms: _100  and  _101
REMARK   50  A    between atoms: _100  and  _103
REMARK   51  A    between atoms: _103  and  _104
REMARK   52  A    between atoms: _106  and  _108
REMARK   53  A    between atoms: _108  and  _109
REMARK   54  A    between atoms: _108  and  _111
REMARK   55  A    between atoms: _111  and  _112
REMARK   56  A    between atoms: _115  and  _117
REMARK   57  A    between atoms: _117  and  _118
REMARK   58  A    between atoms: _117  and  _120
REMARK   59  A    between atoms: _120  and  _121
REMARK   60  A    between atoms: _124  and  _126
REMARK   61  A    between atoms: _126  and  _127
REMARK   62  A    between atoms: _126  and  _129
REMARK   63  A    between atoms: _129  and  _130
REMARK   64  A    between atoms: _133  and  _135
REMARK   65  A    between atoms: _135  and  _136
REMARK   66  A    between atoms: _135  and  _138
REMARK   67  A    between atoms: _138  and  _139
REMARK   68  A    between atoms: _142  and  _144
REMARK   69  A    between atoms: _144  and  _145
REMARK   70  A    between atoms: _144  and  _147
REMARK   71  A    between atoms: _147  and  _148
REMARK   72  A    between atoms: _151  and  _153
REMARK   73  A    between atoms: _153  and  _154
REMARK   74  A    between atoms: _153  and  _156
REMARK   75  A    between atoms: _156  and  _157
REMARK   76  A    between atoms: _160  and  _162
REMARK   77  A    between atoms: _162  and  _163
REMARK   78  A    between atoms: _162  and  _165
REMARK   79  A    between atoms: _165  and  _166
REMARK   80  A    between atoms: _168  and  _170
REMARK   81  A    between atoms: _170  and  _171
REMARK   82  A    between atoms: _170  and  _173
REMARK   83  A    between atoms: _176  and  _178
REMARK   84  A    between atoms: _178  and  _179
REMARK   85  A    between atoms: _178  and  _181
REMARK   86  A    between atoms: _181  and  _182
REMARK   87  A    between atoms: _182  and  _183
REMARK   88  A    between atoms: _186  and  _188
REMARK   89  A    between atoms: _188  and  _189
REMARK   90  A    between atoms: _188  and  _191
REMARK   91  A    between atoms: _191  and  _192
REMARK   92  A    between atoms: _195  and  _197
REMARK   93  A    between atoms: _197  and  _198
REMARK   94  A    between atoms: _197  and  _200
REMARK   95  A    between atoms: _200  and  _201
REMARK   96  A    between atoms: _204  and  _206
REMARK   97  A    between atoms: _206  and  _207
REMARK   98  A    between atoms: _206  and  _209
REMARK   99  A    between atoms: _209  and  _210
REMARK  100  A    between atoms: _215  and  _217
REMARK  101  A    between atoms: _217  and  _218
REMARK  102  A    between atoms: _217  and  _220
REMARK  103  A    between atoms: _220  and  _221
REMARK  104  A    between atoms: _226  and  _228
REMARK  105  A    between atoms: _228  and  _229
REMARK  106  A    between atoms: _228  and  _231
REMARK  107  A    between atoms: _231  and  _232
REMARK  108  A    between atoms: _235  and  _237
REMARK  109  A    between atoms: _237  and  _238
REMARK  110  A    between atoms: _237  and  _240
REMARK  111  A    between atoms: _240  and  _241
REMARK  112  A    between atoms: _243  and  _245
REMARK  113  A    between atoms: _245  and  _246
REMARK  114  A    between atoms: _245  and  _248
REMARK  115  A    between atoms: _248  and  _249
REMARK  116  A    between atoms: _255  and  _257
REMARK  117  A    between atoms: _257  and  _258
REMARK  118  A    between atoms: _257  and  _260
REMARK  119  A    between atoms: _260  and  _261
REMARK  120  A    between atoms: _271  and  _273
REMARK  121  A    between atoms: _273  and  _274
REMARK  122  A    between atoms: _273  and  _276
REMARK  123  A    between atoms: _276  and  _277
REMARK  124  A    between atoms: _281  and  ZN_291
REMARK  125  A    between atoms: _282  and  _284
REMARK  126  A    between atoms: _284  and  _285
REMARK  127  A    between atoms: _284  and  _287
REMARK  128  A    between atoms: _287  and  _288
REMARK                            x       y       z     vdW  Elec       q    Type
REMARK                         _______ _______ _______ _____ _____    ______ ____
ROOT
ATOM      1  CG  LYS A   1     -16.891 -19.034   8.698  0.00  0.00    -0.000 C 
ENDROOT
BRANCH   1   2
ATOM      2  CB  LYS A   1     -16.769 -17.799   7.868  0.00  0.00    +0.025 C 
BRANCH   2   3
ATOM      3  CA  LYS A   1     -15.516 -17.725   7.001  0.00  0.00    +0.133 C 
BRANCH   3   4
ATOM      4  N   LYS A   1     -15.529 -16.470   6.260  0.00  0.00    -0.239 NA
ATOM      5  H   LYS A   1     -16.394 -15.893   6.265  0.00  0.00    +0.142 HD
ENDBRANCH   3   4
BRANCH   3   6
ATOM      6  C   LYS A   1     -15.505 -18.899   6.051  0.00  0.00    +0.224 C 
ATOM      7  O   LYS A   1     -16.334 -18.983   5.125  0.00  0.00    -0.287 OA
ENDBRANCH   3   6
ENDBRANCH   2   3
ENDBRANCH   1   2
BRANCH   1   8
ATOM      8  CD  LYS A   1     -18.085 -18.923   9.629  0.00  0.00    -0.024 C 
BRANCH   8   9
ATOM      9  CE  LYS A   1     -18.506 -20.186  10.300  0.00  0.00    -0.086 C 
BRANCH   9  10
ATOM     10  NZ  LYS A   1     -17.385 -20.639  11.144  0.00  0.00    +0.380 N 
ATOM     11  HZ1 LYS A   1     -17.167 -19.908  11.851  0.00  0.00    -0.089 HD
ATOM     12  HZ2 LYS A   1     -17.650 -21.521  11.626  0.00  0.00    -0.089 HD
ATOM     13  HZ3 LYS A   1     -16.549 -20.806  10.548  0.00  0.00    -0.089 HD
ENDBRANCH   9  10
ENDBRANCH   8   9
ENDBRANCH   1   8
TORSDOF 7
REMARK  Name = ../refined-set-2016/3pb8/3pb8_pocket.pdb
REMARK  128 active torsions:
REMARK  status: ('A' for Active; 'I' for Inactive)
REMARK    1  A    between atoms: _1  and  _3
REMARK    2  A    between atoms: _3  and  _4
REMARK    3  A    between atoms: _3  and  _6
REMARK    4  A    between atoms: _6  and  _7
REMARK    5  A    between atoms: _12  and  _14
REMARK    6  A    between atoms: _14  and  _15
REMARK    7  A    between atoms: _14  and  _17
REMARK    8  A    between atoms: _17  and  _18
REMARK    9  A    between atoms: _21  and  _23
REMARK   10  A    between atoms: _23  and  _24
REMARK   11  A    between atoms: _23  and  _26
REMARK   12  A    between atoms: _26  and  _27
REMARK   13  A    between atoms: _27  and  _28
REMARK   14  A    between atoms: _28  and  _29
REMARK   15  A    between atoms: _29  and  _30
REMARK   16  A    between atoms: _34  and  _36
REMARK   17  A    between atoms: _36  and  _37
REMARK   18  A    between atoms: _36  and  _39
REMARK   19  A    between atoms: _39  and  _40
REMARK   20  A    between atoms: _46  and  _48
REMARK   21  A    between atoms: _48  and  _49
REMARK   22  A    between atoms: _48  and  _51
REMARK   23  A    between atoms: _51  and  _52
REMARK   24  A    between atoms: _55  and  _57
REMARK   25  A    between atoms: _57  and  _58
REMARK   26  A    between atoms: _57  and  _60
REMARK   27  A    between atoms: _60  and  _61
REMARK   28  A    between atoms: _61  and  _63
REMARK   29  A    between atoms: _63  and  ZN_291
REMARK   30  A    between atoms: _64  and  _66
REMARK   31  A    between atoms: _66  and  _67
REMARK   32  A    between atoms: _66  and  _69
REMARK   33  A    between atoms: _69  and  _70
REMARK   34  A    between atoms: _72  and  _74
REMARK   35  A    between atoms: _74  and  _75
REMARK   36  A    between atoms: _74  and  _77
REMARK   37  A    between atoms: _77  and  _78
REMARK   38  A    between atoms: _78  and  _79
REMARK   39  A    between atoms: _82  and  _84
REMARK   40  A    between atoms: _84  and  _85
REMARK   41  A    between atoms: _84  and  _87
REMARK   42  A    between atoms: _87  and  _88
REMARK   43  A    between atoms: _88  and  _89
REMARK   44  A    between atoms: _89  and  _91
REMARK   45  A    between atoms: _91  and  ZN_291
REMARK   46  A    between atoms: _92  and  _94
REMARK   47  A    between atoms: _94  and  _95
REMARK   48  A    between atoms: _98  and  _100
REMARK   49  A    between atoms: _100  and  _101
REMARK   50  A    between atoms: _100  and  _103
REMARK   51  A    between atoms: _103  and  _104
REMARK   52  A    between atoms: _106  and  _108
REMARK   53  A    between atoms: _108  and  _109
REMARK   54  A    between atoms: _108  and  _111
REMARK   55  A    between atoms: _111  and  _112
REMARK   56  A    between atoms: _115  and  _117
REMARK   57  A    between atoms: _117  and  _118
REMARK   58  A    between atoms: _117  and  _120
REMARK   59  A    between atoms: _120  and  _121
REMARK   60  A    between atoms: _124  and  _126
REMARK   61  A    between atoms: _126  and  _127
REMARK   62  A    between atoms: _126  and  _129
REMARK   63  A    between atoms: _129  and  _130
REMARK   64  A    between atoms: _133  and  _135
REMARK   65  A    between atoms: _135  and  _136
REMARK   66  A    between atoms: _135  and  _138
REMARK   67  A    between atoms: _138  and  _139
REMARK   68  A    between atoms: _142  and  _144
REMARK   69  A    between atoms: _144  and  _145
REMARK   70  A    between atoms: _144  and  _147
REMARK   71  A    between atoms: _147  and  _148
REMARK   72  A    between atoms: _151  and  _153
REMARK   73  A    between atoms: _153  and  _154
REMARK   74  A    between atoms: _153  and  _156
REMARK   75  A    between atoms: _156  and  _157
REMARK   76  A    between atoms: _160  and  _162
REMARK   77  A    between atoms: _162  and  _163
REMARK   78  A    between atoms: _162  and  _165
REMARK   79  A    between atoms: _165  and  _166
REMARK   80  A    between atoms: _168  and  _170
REMARK   81  A    between atoms: _170  and  _171
REMARK   82  A    between atoms: _170  and  _173
REMARK   83  A    between atoms: _176  and  _178
REMARK   84  A    between atoms: _178  and  _179
REMARK   85  A    between atoms: _178  and  _181
REMARK   86  A    between atoms: _181  and  _182
REMARK   87  A    between atoms: _182  and  _183
REMARK   88  A    between atoms: _186  and  _188
REMARK   89  A    between atoms: _188  and  _189
REMARK   90  A    between atoms: _188  and  _191
REMARK   91  A    between atoms: _191  and  _192
REMARK   92  A    between atoms: _195  and  _197
REMARK   93  A    between atoms: _197  and  _198
REMARK   94  A    between atoms: _197  and  _200
REMARK   95  A    between atoms: _200  and  _201
REMARK   96  A    between atoms: _204  and  _206
REMARK   97  A    between atoms: _206  and  _207
REMARK   98  A    between atoms: _206  and  _209
REMARK   99  A    between atoms: _209  and  _210
REMARK  100  A    between atoms: _215  and  _217
REMARK  101  A    between atoms: _217  and  _218
REMARK  102  A    between atoms: _217  and  _220
REMARK  103  A    between atoms: _220  and  _221
REMARK  104  A    between atoms: _226  and  _228
REMARK  105  A    between atoms: _228  and  _229
REMARK  106  A    between atoms: _228  and  _231
REMARK  107  A    between atoms: _231  and  _232
REMARK  108  A    between atoms: _235  and  _237
REMARK  109  A    between atoms: _237  and  _238
REMARK  110  A    between atoms: _237  and  _240
REMARK  111  A    between atoms: _240  and  _241
REMARK  112  A    between atoms: _243  and  _245
REMARK  113  A    between atoms: _245  and  _246
REMARK  114  A    between atoms: _245  and  _248
REMARK  115  A    between atoms: _248  and  _249
REMARK  116  A    between atoms: _255  and  _257
REMARK  117  A    between atoms: _257  and  _258
REMARK  118  A    between atoms: _257  and  _260
REMARK  119  A    between atoms: _260  and  _261
REMARK  120  A    between atoms: _271  and  _273
REMARK  121  A    between atoms: _273  and  _274
REMARK  122  A    between atoms: _273  and  _276
REMARK  123  A    between atoms: _276  and  _277
REMARK  124  A    between atoms: _281  and  ZN_291
REMARK  125  A    between atoms: _282  and  _284
REMARK  126  A    between atoms: _284  and  _285
REMARK  127  A    between atoms: _284  and  _287
REMARK  128  A    between atoms: _287  and  _288
REMARK                            x       y       z     vdW  Elec       q    Type
REMARK                         _______ _______ _______ _____ _____    ______ ____
ROOT
ATOM      1  CB  PHE A   1     -19.947 -18.480   3.199  0.00  0.00    +0.051 C 
ENDROOT
BRANCH   1   2
ATOM      2  CG  PHE A   1     -20.134 -17.453   4.295  0.00  0.00    -0.020 A 
ATOM      3  CD2 PHE A   1     -21.377 -17.215   4.817  0.00  0.00    -0.004 A 
ATOM      4  CE2 PHE A   1     -21.557 -16.287   5.850  0.00  0.00    -0.000 A 
ATOM      5  CZ  PHE A   1     -20.488 -15.567   6.345  0.00  0.00    -0.000 A 
ATOM      6  CE1 PHE A   1     -19.248 -15.781   5.809  0.00  0.00    -0.000 A 
ATOM      7  CD1 PHE A   1     -19.060 -16.715   4.787  0.00  0.00    -0.004 A 
ENDBRANCH   1   2
BRANCH   1   8
ATOM      8  CA  PHE A   1     -20.290 -17.924   1.808  0.00  0.00    +0.137 C 
BRANCH   8   9
ATOM      9  N   PHE A   1     -20.036 -18.968   0.828  0.00  0.00    -0.239 NA
ATOM     10  H   PHE A   1     -19.268 -19.645   1.010  0.00  0.00    +0.142 HD
ENDBRANCH   8   9
BRANCH   8  11
ATOM     11  C   PHE A   1     -19.403 -16.717   1.491  0.00  0.00    +0.224 C 
ATOM     12  O   PHE A   1     -18.193 -16.812   1.450  0.00  0.00    -0.287 OA
ENDBRANCH   8  11
ENDBRANCH   1   8
TORSDOF 4
REMARK  Name = ../refined-set-2016/3pb8/3pb8_pocket.pdb
REMARK  128 active torsions:
REMARK  status: ('A' for Active; 'I' for Inactive)
REMARK    1  A    between atoms: _1  and  _3
REMARK    2  A    between atoms: _3  and  _4
REMARK    3  A    between atoms: _3  and  _6
REMARK    4  A    between atoms: _6  and  _7
REMARK    5  A    between atoms: _12  and  _14
REMARK    6  A    between atoms: _14  and  _15
REMARK    7  A    between atoms: _14  and  _17
REMARK    8  A    between atoms: _17  and  _18
REMARK    9  A    between atoms: _21  and  _23
REMARK   10  A    between atoms: _23  and  _24
REMARK   11  A    between atoms: _23  and  _26
REMARK   12  A    between atoms: _26  and  _27
REMARK   13  A    between atoms: _27  and  _28
REMARK   14  A    between atoms: _28  and  _29
REMARK   15  A    between atoms: _29  and  _30
REMARK   16  A    between atoms: _34  and  _36
REMARK   17  A    between atoms: _36  and  _37
REMARK   18  A    between atoms: _36  and  _39
REMARK   19  A    between atoms: _39  and  _40
REMARK   20  A    between atoms: _46  and  _48
REMARK   21  A    between atoms: _48  and  _49
REMARK   22  A    between atoms: _48  and  _51
REMARK   23  A    between atoms: _51  and  _52
REMARK   24  A    between atoms: _55  and  _57
REMARK   25  A    between atoms: _57  and  _58
REMARK   26  A    between atoms: _57  and  _60
REMARK   27  A    between atoms: _60  and  _61
REMARK   28  A    between atoms: _61  and  _63
REMARK   29  A    between atoms: _63  and  ZN_291
REMARK   30  A    between atoms: _64  and  _66
REMARK   31  A    between atoms: _66  and  _67
REMARK   32  A    between atoms: _66  and  _69
REMARK   33  A    between atoms: _69  and  _70
REMARK   34  A    between atoms: _72  and  _74
REMARK   35  A    between atoms: _74  and  _75
REMARK   36  A    between atoms: _74  and  _77
REMARK   37  A    between atoms: _77  and  _78
REMARK   38  A    between atoms: _78  and  _79
REMARK   39  A    between atoms: _82  and  _84
REMARK   40  A    between atoms: _84  and  _85
REMARK   41  A    between atoms: _84  and  _87
REMARK   42  A    between atoms: _87  and  _88
REMARK   43  A    between atoms: _88  and  _89
REMARK   44  A    between atoms: _89  and  _91
REMARK   45  A    between atoms: _91  and  ZN_291
REMARK   46  A    between atoms: _92  and  _94
REMARK   47  A    between atoms: _94  and  _95
REMARK   48  A    between atoms: _98  and  _100
REMARK   49  A    between atoms: _100  and  _101
REMARK   50  A    between atoms: _100  and  _103
REMARK   51  A    between atoms: _103  and  _104
REMARK   52  A    between atoms: _106  and  _108
REMARK   53  A    between atoms: _108  and  _109
REMARK   54  A    between atoms: _108  and  _111
REMARK   55  A    between atoms: _111  and  _112
REMARK   56  A    between atoms: _115  and  _117
REMARK   57  A    between atoms: _117  and  _118
REMARK   58  A    between atoms: _117  and  _120
REMARK   59  A    between atoms: _120  and  _121
REMARK   60  A    between atoms: _124  and  _126
REMARK   61  A    between atoms: _126  and  _127
REMARK   62  A    between atoms: _126  and  _129
REMARK   63  A    between atoms: _129  and  _130
REMARK   64  A    between atoms: _133  and  _135
REMARK   65  A    between atoms: _135  and  _136
REMARK   66  A    between atoms: _135  and  _138
REMARK   67  A    between atoms: _138  and  _139
REMARK   68  A    between atoms: _142  and  _144
REMARK   69  A    between atoms: _144  and  _145
REMARK   70  A    between atoms: _144  and  _147
REMARK   71  A    between atoms: _147  and  _148
REMARK   72  A    between atoms: _151  and  _153
REMARK   73  A    between atoms: _153  and  _154
REMARK   74  A    between atoms: _153  and  _156
REMARK   75  A    between atoms: _156  and  _157
REMARK   76  A    between atoms: _160  and  _162
REMARK   77  A    between atoms: _162  and  _163
REMARK   78  A    between atoms: _162  and  _165
REMARK   79  A    between atoms: _165  and  _166
REMARK   80  A    between atoms: _168  and  _170
REMARK   81  A    between atoms: _170  and  _171
REMARK   82  A    between atoms: _170  and  _173
REMARK   83  A    between atoms: _176  and  _178
REMARK   84  A    between atoms: _178  and  _179
REMARK   85  A    between atoms: _178  and  _181
REMARK   86  A    between atoms: _181  and  _182
REMARK   87  A    between atoms: _182  and  _183
REMARK   88  A    between atoms: _186  and  _188
REMARK   89  A    between atoms: _188  and  _189
REMARK   90  A    between atoms: _188  and  _191
REMARK   91  A    between atoms: _191  and  _192
REMARK   92  A    between atoms: _195  and  _197
REMARK   93  A    between atoms: _197  and  _198
REMARK   94  A    between atoms: _197  and  _200
REMARK   95  A    between atoms: _200  and  _201
REMARK   96  A    between atoms: _204  and  _206
REMARK   97  A    between atoms: _206  and  _207
REMARK   98  A    between atoms: _206  and  _209
REMARK   99  A    between atoms: _209  and  _210
REMARK  100  A    between atoms: _215  and  _217
REMARK  101  A    between atoms: _217  and  _218
REMARK  102  A    between atoms: _217  and  _220
REMARK  103  A    between atoms: _220  and  _221
REMARK  104  A    between atoms: _226  and  _228
REMARK  105  A    between atoms: _228  and  _229
REMARK  106  A    between atoms: _228  and  _231
REMARK  107  A    between atoms: _231  and  _232
REMARK  108  A    between atoms: _235  and  _237
REMARK  109  A    between atoms: _237  and  _238
REMARK  110  A    between atoms: _237  and  _240
REMARK  111  A    between atoms: _240  and  _241
REMARK  112  A    between atoms: _243  and  _245
REMARK  113  A    between atoms: _245  and  _246
REMARK  114  A    between atoms: _245  and  _248
REMARK  115  A    between atoms: _248  and  _249
REMARK  116  A    between atoms: _255  and  _257
REMARK  117  A    between atoms: _257  and  _258
REMARK  118  A    between atoms: _257  and  _260
REMARK  119  A    between atoms: _260  and  _261
REMARK  120  A    between atoms: _271  and  _273
REMARK  121  A    between atoms: _273  and  _274
REMARK  122  A    between atoms: _273  and  _276
REMARK  123  A    between atoms: _276  and  _277
REMARK  124  A    between atoms: _281  and  ZN_291
REMARK  125  A    between atoms: _282  and  _284
REMARK  126  A    between atoms: _284  and  _285
REMARK  127  A    between atoms: _284  and  _287
REMARK  128  A    between atoms: _287  and  _288
REMARK                            x       y       z     vdW  Elec       q    Type
REMARK                         _______ _______ _______ _____ _____    ______ ____
ROOT
ATOM      1 ZN   UNK A   2     -18.583 -14.213  11.035  0.00  0.00    +0.000 Zn
ENDROOT
BRANCH   1   2
ATOM      2  N   UNK A   2     -19.590 -15.907  11.394  0.00  0.00    +0.000 N 
ATOM      3  C   UNK A   2     -19.401 -16.883  12.234  0.00  0.00    +0.000 A 
ATOM      4  N   UNK A   2     -20.373 -17.801  12.113  0.00  0.00    +0.000 NA
ATOM      5  C   UNK A   2     -21.239 -17.371  11.142  0.00  0.00    +0.000 A 
ATOM      6  C   UNK A   2     -20.728 -16.212  10.697  0.00  0.00    +0.000 A 
BRANCH   5   7
ATOM      7  C   UNK A   2     -22.433 -18.157  10.698  0.00  0.00    +0.000 C 
BRANCH   7   8
ATOM      8  C   UNK A   2     -23.042 -17.585   9.393  0.00  0.00    +0.000 C 
BRANCH   8   9
ATOM      9  N   UNK A   2     -23.721 -16.308   9.561  0.00  0.00    +0.000 N 
ATOM     10  C   GLU A   1     -24.917 -16.176  10.149  0.00  0.00    +0.000 C 
ATOM     11  O   GLU A   1     -25.546 -17.169  10.553  0.00  0.00    +0.000 OA
ATOM     12  H   UNK A   2     -23.251 -15.451   9.205  0.00  0.00    +0.000 HD
BRANCH  10  13
ATOM     13  CA  GLU A   1     -25.406 -14.756  10.366  0.00  0.00    +0.000 C 
BRANCH  13  14
ATOM     14  N   GLU A   1     -26.759 -14.523   9.804  0.00  0.00    +0.000 NA
ATOM     15  H   GLU A   1     -27.471 -14.053  10.399  0.00  0.00    +0.000 HD
ENDBRANCH  13  14
BRANCH  13  16
ATOM     16  CB  GLU A   1     -25.428 -14.394  11.841  0.00  0.00    +0.000 C 
BRANCH  16  17
ATOM     17  CG  GLU A   1     -24.073 -14.555  12.492  0.00  0.00    +0.000 A 
ATOM     18  CD2 GLU A   1     -23.626 -15.640  13.278  0.00  0.00    +0.000 A 
ATOM     19  CE2 GLU A   1     -22.353 -15.310  13.753  0.00  0.00    +0.000 A 
ATOM     20  CZ2 GLU A   1     -21.612 -16.166  14.631  0.00  0.00    +0.000 A 
ATOM     21  CH2 GLU A   1     -22.252 -17.340  14.995  0.00  0.00    +0.000 A 
ATOM     22  CZ3 GLU A   1     -23.514 -17.698  14.542  0.00  0.00    +0.000 A 
ATOM     23  NE1 GLU A   1     -22.002 -14.092  13.231  0.00  0.00    +0.000 N 
ATOM     24  HE1 GLU A   1     -21.100 -13.598  13.382  0.00  0.00    +0.000 HD
ATOM     25  CE3 GLU A   1     -24.237 -16.839  13.706  0.00  0.00    +0.000 A 
ATOM     26  CD1 GLU A   1     -23.056 -13.641  12.473  0.00  0.00    +0.000 A 
ENDBRANCH  16  17
ENDBRANCH  13  16
ENDBRANCH  10  13
ENDBRANCH   8   9
BRANCH   8  27
ATOM     27  C   UNK A   2     -23.882 -18.596   8.638  0.00  0.00    +0.000 C 
ATOM     28  O   UNK A   2     -23.726 -19.787   8.812  0.00  0.00    +0.000 OA
ENDBRANCH   8  27
ENDBRANCH   7   8
ENDBRANCH   5   7
ENDBRANCH   1   2
BRANCH   1  29
ATOM     29  O   UNK A   2     -16.946 -14.454  10.047  0.00  0.00    +0.000 OA
BRANCH  29  30
ATOM     30  C   UNK A   2     -16.059 -15.221  10.548  0.00  0.00    +0.000 C 
ATOM     31  O   UNK A   2     -16.287 -15.872  11.584  0.00  0.00    +0.000 OA
BRANCH  30  32
ATOM     32  C   UNK A   2     -14.754 -15.306   9.834  0.00  0.00    +0.000 C 
BRANCH  32  33
ATOM     33  C   UNK A   2     -13.822 -16.476  10.231  0.00  0.00    +0.000 C 
BRANCH  33  34
ATOM     34  C   UNK A   2     -13.054 -16.263  11.511  0.00  0.00    +0.000 C 
BRANCH  34  35
ATOM     35  C   UNK A   2     -12.313 -17.518  11.813  0.00  0.00    +0.000 C 
ATOM     36  N   SER A   3     -12.919 -18.433  12.516  0.00  0.00    +0.000 N 
ATOM     37  H   SER A   3     -13.809 -18.189  12.996  0.00  0.00    +0.000 HD
ATOM     38  O   UNK A   2     -11.152 -17.727  11.363  0.00  0.00    +0.000 OA
BRANCH  36  39
ATOM     39  CA  SER A   3     -12.389 -19.798  12.654  0.00  0.00    +0.000 C 
ATOM     40  CB  SER A   3     -13.295 -20.556  13.570  0.00  0.00    +0.000 C 
BRANCH  39  41
ATOM     41  C   SER A   3     -12.297 -20.484  11.307  0.00  0.00    +0.000 C 
ATOM     42  O   SER A   3     -13.222 -20.337  10.492  0.00  0.00    +0.000 OA
ENDBRANCH  39  41
ENDBRANCH  36  39
ENDBRANCH  34  35
BRANCH  34  43
ATOM     43  N   UNK A   2     -12.173 -15.102  11.381  0.00  0.00    +0.000 N 
ATOM     44  C   GLU A   1     -11.664 -14.489  12.451  0.00  0.00    +0.000 C 
ATOM     45  O   GLU A   1     -11.838 -14.909  13.600  0.00  0.00    +0.000 OA
ATOM     46  H   UNK A   2     -11.938 -14.746  10.432  0.00  0.00    +0.000 HD
BRANCH  44  47
ATOM     47  CA  GLU A   1     -10.964 -13.188  12.205  0.00  0.00    +0.000 C 
BRANCH  47  48
ATOM     48  N   GLU A   1     -10.110 -13.276  11.016  0.00  0.00    +0.000 NA
ATOM     49  H   GLU A   1     -10.292 -12.672  10.189  0.00  0.00    +0.000 HD
ENDBRANCH  47  48
BRANCH  47  50
ATOM     50  CB  GLU A   1     -11.928 -12.023  12.055  0.00  0.00    +0.000 C 
BRANCH  50  51
ATOM     51  CG  GLU A   1     -12.868 -11.827  13.229  0.00  0.00    +0.000 C 
BRANCH  51  52
ATOM     52  CD  GLU A   1     -14.057 -12.658  13.241  0.00  0.00    +0.000 C 
ATOM     53  OE2 GLU A   1     -14.572 -12.916  14.437  0.00  0.00    +0.000 OA
ATOM     54  OE1 GLU A   1     -14.510 -13.184  12.270  0.00  0.00    +0.000 OA
ENDBRANCH  51  52
ENDBRANCH  50  51
ENDBRANCH  47  50
ENDBRANCH  44  47
ENDBRANCH  34  43
ENDBRANCH  33  34
ENDBRANCH  32  33
ENDBRANCH  30  32
ENDBRANCH  29  30
ENDBRANCH   1  29
BRANCH   1  55
ATOM     55  O   UNK A   2     -19.831 -13.326   9.756  0.00  0.00    +0.000 OA
BRANCH  55  56
ATOM     56  C   UNK A   2     -19.402 -12.175   9.419  0.00  0.00    +0.000 C 
ATOM     57  O   UNK A   2     -18.338 -11.713   9.875  0.00  0.00    +0.000 OA
BRANCH  56  58
ATOM     58  C   UNK A   2     -20.235 -11.410   8.439  0.00  0.00    +0.000 C 
BRANCH  58  59
ATOM     59  C   UNK A   2     -19.596 -10.138   7.916  0.00  0.00    +0.000 C 
BRANCH  59  62
ATOM     60  C   GLU A   1     -21.263  -8.392   7.367  0.00  0.00    +0.000 C 
ATOM     61  O   GLU A   1     -20.947  -7.628   8.292  0.00  0.00    +0.000 OA
ATOM     62  N   UNK A   2     -20.554  -9.473   7.026  0.00  0.00    +0.000 N 
ATOM     63  H   UNK A   2     -20.690  -9.866   6.073  0.00  0.00    +0.000 HD
BRANCH  60  64
ATOM     64  CA  GLU A   1     -22.525  -8.158   6.568  0.00  0.00    +0.000 C 
BRANCH  64  65
ATOM     65  N   GLU A   1     -22.550  -8.965   5.335  0.00  0.00    +0.000 NA
ATOM     66  H   GLU A   1     -23.106  -9.843   5.307  0.00  0.00    +0.000 HD
ENDBRANCH  64  65
BRANCH  64  67
ATOM     67  CB  GLU A   1     -23.735  -8.505   7.500  0.00  0.00    +0.000 C 
ATOM     68  CG2 GLU A   1     -25.059  -8.337   6.877  0.00  0.00    +0.000 C 
BRANCH  67  69
ATOM     69  OG1 GLU A   1     -23.542  -9.828   8.056  0.00  0.00    +0.000 OA
ATOM     70  HG1 GLU A   1     -23.487 -10.489   7.321  0.00  0.00    +0.000 HD
ENDBRANCH  67  69
ENDBRANCH  64  67
ENDBRANCH  60  64
ENDBRANCH  59  62
BRANCH  59  71
ATOM     71  C   UNK A   2     -18.334 -10.452   7.132  0.00  0.00    +0.000 C 
ATOM     72  O   UNK A   2     -18.058 -11.617   6.808  0.00  0.00    +0.000 OA
ATOM     73  N   SER A   3     -17.522  -9.457   6.767  0.00  0.00    +0.000 N 
ATOM     74  H   SER A   3     -16.693  -9.725   6.199  0.00  0.00    +0.000 HD
BRANCH  73  75
ATOM     75  CA  SER A   3     -17.664  -8.032   7.074  0.00  0.00    +0.000 C 
BRANCH  75  76
ATOM     76  C   SER A   3     -17.402  -7.204   5.825  0.00  0.00    +0.000 C 
ATOM     77  O   SER A   3     -16.704  -6.177   5.894  0.00  0.00    +0.000 OA
ENDBRANCH  75  76
BRANCH  75  78
ATOM     78  CB  SER A   3     -16.832  -7.613   8.265  0.00  0.00    +0.000 C 
BRANCH  78  79
ATOM     79  OG  SER A   3     -17.501  -8.048   9.422  0.00  0.00    +0.000 OA
ATOM     80  H   SER A   3     -16.979  -7.787  10.222  0.00  0.00    +0.000 HD
ENDBRANCH  78  79
ENDBRANCH  75  78
ENDBRANCH  73  75
ENDBRANCH  59  71
ENDBRANCH  58  59
ENDBRANCH  56  58
ENDBRANCH  55  56
ENDBRANCH   1  55
TORSDOF 37
REMARK  Name = ../refined-set-2016/3pb8/3pb8_pocket.pdb
REMARK  128 active torsions:
REMARK  status: ('A' for Active; 'I' for Inactive)
REMARK    1  A    between atoms: _1  and  _3
REMARK    2  A    between atoms: _3  and  _4
REMARK    3  A    between atoms: _3  and  _6
REMARK    4  A    between atoms: _6  and  _7
REMARK    5  A    between atoms: _12  and  _14
REMARK    6  A    between atoms: _14  and  _15
REMARK    7  A    between atoms: _14  and  _17
REMARK    8  A    between atoms: _17  and  _18
REMARK    9  A    between atoms: _21  and  _23
REMARK   10  A    between atoms: _23  and  _24
REMARK   11  A    between atoms: _23  and  _26
REMARK   12  A    between atoms: _26  and  _27
REMARK   13  A    between atoms: _27  and  _28
REMARK   14  A    between atoms: _28  and  _29
REMARK   15  A    between atoms: _29  and  _30
REMARK   16  A    between atoms: _34  and  _36
REMARK   17  A    between atoms: _36  and  _37
REMARK   18  A    between atoms: _36  and  _39
REMARK   19  A    between atoms: _39  and  _40
REMARK   20  A    between atoms: _46  and  _48
REMARK   21  A    between atoms: _48  and  _49
REMARK   22  A    between atoms: _48  and  _51
REMARK   23  A    between atoms: _51  and  _52
REMARK   24  A    between atoms: _55  and  _57
REMARK   25  A    between atoms: _57  and  _58
REMARK   26  A    between atoms: _57  and  _60
REMARK   27  A    between atoms: _60  and  _61
REMARK   28  A    between atoms: _61  and  _63
REMARK   29  A    between atoms: _63  and  ZN_291
REMARK   30  A    between atoms: _64  and  _66
REMARK   31  A    between atoms: _66  and  _67
REMARK   32  A    between atoms: _66  and  _69
REMARK   33  A    between atoms: _69  and  _70
REMARK   34  A    between atoms: _72  and  _74
REMARK   35  A    between atoms: _74  and  _75
REMARK   36  A    between atoms: _74  and  _77
REMARK   37  A    between atoms: _77  and  _78
REMARK   38  A    between atoms: _78  and  _79
REMARK   39  A    between atoms: _82  and  _84
REMARK   40  A    between atoms: _84  and  _85
REMARK   41  A    between atoms: _84  and  _87
REMARK   42  A    between atoms: _87  and  _88
REMARK   43  A    between atoms: _88  and  _89
REMARK   44  A    between atoms: _89  and  _91
REMARK   45  A    between atoms: _91  and  ZN_291
REMARK   46  A    between atoms: _92  and  _94
REMARK   47  A    between atoms: _94  and  _95
REMARK   48  A    between atoms: _98  and  _100
REMARK   49  A    between atoms: _100  and  _101
REMARK   50  A    between atoms: _100  and  _103
REMARK   51  A    between atoms: _103  and  _104
REMARK   52  A    between atoms: _106  and  _108
REMARK   53  A    between atoms: _108  and  _109
REMARK   54  A    between atoms: _108  and  _111
REMARK   55  A    between atoms: _111  and  _112
REMARK   56  A    between atoms: _115  and  _117
REMARK   57  A    between atoms: _117  and  _118
REMARK   58  A    between atoms: _117  and  _120
REMARK   59  A    between atoms: _120  and  _121
REMARK   60  A    between atoms: _124  and  _126
REMARK   61  A    between atoms: _126  and  _127
REMARK   62  A    between atoms: _126  and  _129
REMARK   63  A    between atoms: _129  and  _130
REMARK   64  A    between atoms: _133  and  _135
REMARK   65  A    between atoms: _135  and  _136
REMARK   66  A    between atoms: _135  and  _138
REMARK   67  A    between atoms: _138  and  _139
REMARK   68  A    between atoms: _142  and  _144
REMARK   69  A    between atoms: _144  and  _145
REMARK   70  A    between atoms: _144  and  _147
REMARK   71  A    between atoms: _147  and  _148
REMARK   72  A    between atoms: _151  and  _153
REMARK   73  A    between atoms: _153  and  _154
REMARK   74  A    between atoms: _153  and  _156
REMARK   75  A    between atoms: _156  and  _157
REMARK   76  A    between atoms: _160  and  _162
REMARK   77  A    between atoms: _162  and  _163
REMARK   78  A    between atoms: _162  and  _165
REMARK   79  A    between atoms: _165  and  _166
REMARK   80  A    between atoms: _168  and  _170
REMARK   81  A    between atoms: _170  and  _171
REMARK   82  A    between atoms: _170  and  _173
REMARK   83  A    between atoms: _176  and  _178
REMARK   84  A    between atoms: _178  and  _179
REMARK   85  A    between atoms: _178  and  _181
REMARK   86  A    between atoms: _181  and  _182
REMARK   87  A    between atoms: _182  and  _183
REMARK   88  A    between atoms: _186  and  _188
REMARK   89  A    between atoms: _188  and  _189
REMARK   90  A    between atoms: _188  and  _191
REMARK   91  A    between atoms: _191  and  _192
REMARK   92  A    between atoms: _195  and  _197
REMARK   93  A    between atoms: _197  and  _198
REMARK   94  A    between atoms: _197  and  _200
REMARK   95  A    between atoms: _200  and  _201
REMARK   96  A    between atoms: _204  and  _206
REMARK   97  A    between atoms: _206  and  _207
REMARK   98  A    between atoms: _206  and  _209
REMARK   99  A    between atoms: _209  and  _210
REMARK  100  A    between atoms: _215  and  _217
REMARK  101  A    between atoms: _217  and  _218
REMARK  102  A    between atoms: _217  and  _220
REMARK  103  A    between atoms: _220  and  _221
REMARK  104  A    between atoms: _226  and  _228
REMARK  105  A    between atoms: _228  and  _229
REMARK  106  A    between atoms: _228  and  _231
REMARK  107  A    between atoms: _231  and  _232
REMARK  108  A    between atoms: _235  and  _237
REMARK  109  A    between atoms: _237  and  _238
REMARK  110  A    between atoms: _237  and  _240
REMARK  111  A    between atoms: _240  and  _241
REMARK  112  A    between atoms: _243  and  _245
REMARK  113  A    between atoms: _245  and  _246
REMARK  114  A    between atoms: _245  and  _248
REMARK  115  A    between atoms: _248  and  _249
REMARK  116  A    between atoms: _255  and  _257
REMARK  117  A    between atoms: _257  and  _258
REMARK  118  A    between atoms: _257  and  _260
REMARK  119  A    between atoms: _260  and  _261
REMARK  120  A    between atoms: _271  and  _273
REMARK  121  A    between atoms: _273  and  _274
REMARK  122  A    between atoms: _273  and  _276
REMARK  123  A    between atoms: _276  and  _277
REMARK  124  A    between atoms: _281  and  ZN_291
REMARK  125  A    between atoms: _282  and  _284
REMARK  126  A    between atoms: _284  and  _285
REMARK  127  A    between atoms: _284  and  _287
REMARK  128  A    between atoms: _287  and  _288
REMARK                            x       y       z     vdW  Elec       q    Type
REMARK                         _______ _______ _______ _____ _____    ______ ____
ROOT
ATOM      1  C   SER A   1      -9.000 -16.310  15.764  0.00  0.00    +0.241 C 
ATOM      2  O   SER A   1      -7.909 -16.455  16.365  0.00  0.00    -0.274 OA
ATOM      3  N   LEU A   2      -9.381 -15.143  15.271  0.00  0.00    -0.298 N 
ATOM      4  H   LEU A   2     -10.207 -15.101  14.640  0.00  0.00    +0.150 HD
ENDROOT
BRANCH   1   5
ATOM      5  CA  SER A   1      -9.959 -17.455  15.634  0.00  0.00    +0.174 C 
BRANCH   5   6
ATOM      6  N   SER A   1      -9.190 -18.725  15.705  0.00  0.00    -0.236 NA
ATOM      7  H   SER A   1      -8.160 -18.665  15.832  0.00  0.00    +0.142 HD
ENDBRANCH   5   6
BRANCH   5   8
ATOM      8  CB  SER A   1     -11.007 -17.349  16.713  0.00  0.00    +0.163 C 
BRANCH   8   9
ATOM      9  OG  SER A   1     -10.510 -17.153  17.971  0.00  0.00    -0.380 OA
ATOM     10  H   SER A   1     -11.259 -17.095  18.615  0.00  0.00    +0.211 HD
ENDBRANCH   8   9
ENDBRANCH   5   8
ENDBRANCH   1   5
BRANCH   3  11
ATOM     11  CA  LEU A   2      -8.662 -13.907  15.596  0.00  0.00    +0.137 C 
BRANCH  11  12
ATOM     12  C   LEU A   2      -7.185 -14.002  15.225  0.00  0.00    +0.227 C 
ATOM     13  O   LEU A   2      -6.335 -13.431  15.885  0.00  0.00    -0.286 OA
ENDBRANCH  11  12
BRANCH  11  14
ATOM     14  CB  LEU A   2      -8.827 -13.448  17.026  0.00  0.00    +0.028 C 
BRANCH  14  15
ATOM     15  CG  LEU A   2     -10.249 -13.436  17.600  0.00  0.00    +0.002 C 
ATOM     16  CD2 LEU A   2     -10.200 -12.851  18.995  0.00  0.00    +0.000 C 
ATOM     17  CD1 LEU A   2     -11.179 -12.640  16.712  0.00  0.00    +0.000 C 
ENDBRANCH  14  15
ENDBRANCH  11  14
ENDBRANCH   3  11
TORSDOF 8
REMARK  Name = ../refined-set-2016/3pb8/3pb8_pocket.pdb
REMARK  128 active torsions:
REMARK  status: ('A' for Active; 'I' for Inactive)
REMARK    1  A    between atoms: _1  and  _3
REMARK    2  A    between atoms: _3  and  _4
REMARK    3  A    between atoms: _3  and  _6
REMARK    4  A    between atoms: _6  and  _7
REMARK    5  A    between atoms: _12  and  _14
REMARK    6  A    between atoms: _14  and  _15
REMARK    7  A    between atoms: _14  and  _17
REMARK    8  A    between atoms: _17  and  _18
REMARK    9  A    between atoms: _21  and  _23
REMARK   10  A    between atoms: _23  and  _24
REMARK   11  A    between atoms: _23  and  _26
REMARK   12  A    between atoms: _26  and  _27
REMARK   13  A    between atoms: _27  and  _28
REMARK   14  A    between atoms: _28  and  _29
REMARK   15  A    between atoms: _29  and  _30
REMARK   16  A    between atoms: _34  and  _36
REMARK   17  A    between atoms: _36  and  _37
REMARK   18  A    between atoms: _36  and  _39
REMARK   19  A    between atoms: _39  and  _40
REMARK   20  A    between atoms: _46  and  _48
REMARK   21  A    between atoms: _48  and  _49
REMARK   22  A    between atoms: _48  and  _51
REMARK   23  A    between atoms: _51  and  _52
REMARK   24  A    between atoms: _55  and  _57
REMARK   25  A    between atoms: _57  and  _58
REMARK   26  A    between atoms: _57  and  _60
REMARK   27  A    between atoms: _60  and  _61
REMARK   28  A    between atoms: _61  and  _63
REMARK   29  A    between atoms: _63  and  ZN_291
REMARK   30  A    between atoms: _64  and  _66
REMARK   31  A    between atoms: _66  and  _67
REMARK   32  A    between atoms: _66  and  _69
REMARK   33  A    between atoms: _69  and  _70
REMARK   34  A    between atoms: _72  and  _74
REMARK   35  A    between atoms: _74  and  _75
REMARK   36  A    between atoms: _74  and  _77
REMARK   37  A    between atoms: _77  and  _78
REMARK   38  A    between atoms: _78  and  _79
REMARK   39  A    between atoms: _82  and  _84
REMARK   40  A    between atoms: _84  and  _85
REMARK   41  A    between atoms: _84  and  _87
REMARK   42  A    between atoms: _87  and  _88
REMARK   43  A    between atoms: _88  and  _89
REMARK   44  A    between atoms: _89  and  _91
REMARK   45  A    between atoms: _91  and  ZN_291
REMARK   46  A    between atoms: _92  and  _94
REMARK   47  A    between atoms: _94  and  _95
REMARK   48  A    between atoms: _98  and  _100
REMARK   49  A    between atoms: _100  and  _101
REMARK   50  A    between atoms: _100  and  _103
REMARK   51  A    between atoms: _103  and  _104
REMARK   52  A    between atoms: _106  and  _108
REMARK   53  A    between atoms: _108  and  _109
REMARK   54  A    between atoms: _108  and  _111
REMARK   55  A    between atoms: _111  and  _112
REMARK   56  A    between atoms: _115  and  _117
REMARK   57  A    between atoms: _117  and  _118
REMARK   58  A    between atoms: _117  and  _120
REMARK   59  A    between atoms: _120  and  _121
REMARK   60  A    between atoms: _124  and  _126
REMARK   61  A    between atoms: _126  and  _127
REMARK   62  A    between atoms: _126  and  _129
REMARK   63  A    between atoms: _129  and  _130
REMARK   64  A    between atoms: _133  and  _135
REMARK   65  A    between atoms: _135  and  _136
REMARK   66  A    between atoms: _135  and  _138
REMARK   67  A    between atoms: _138  and  _139
REMARK   68  A    between atoms: _142  and  _144
REMARK   69  A    between atoms: _144  and  _145
REMARK   70  A    between atoms: _144  and  _147
REMARK   71  A    between atoms: _147  and  _148
REMARK   72  A    between atoms: _151  and  _153
REMARK   73  A    between atoms: _153  and  _154
REMARK   74  A    between atoms: _153  and  _156
REMARK   75  A    between atoms: _156  and  _157
REMARK   76  A    between atoms: _160  and  _162
REMARK   77  A    between atoms: _162  and  _163
REMARK   78  A    between atoms: _162  and  _165
REMARK   79  A    between atoms: _165  and  _166
REMARK   80  A    between atoms: _168  and  _170
REMARK   81  A    between atoms: _170  and  _171
REMARK   82  A    between atoms: _170  and  _173
REMARK   83  A    between atoms: _176  and  _178
REMARK   84  A    between atoms: _178  and  _179
REMARK   85  A    between atoms: _178  and  _181
REMARK   86  A    between atoms: _181  and  _182
REMARK   87  A    between atoms: _182  and  _183
REMARK   88  A    between atoms: _186  and  _188
REMARK   89  A    between atoms: _188  and  _189
REMARK   90  A    between atoms: _188  and  _191
REMARK   91  A    between atoms: _191  and  _192
REMARK   92  A    between atoms: _195  and  _197
REMARK   93  A    between atoms: _197  and  _198
REMARK   94  A    between atoms: _197  and  _200
REMARK   95  A    between atoms: _200  and  _201
REMARK   96  A    between atoms: _204  and  _206
REMARK   97  A    between atoms: _206  and  _207
REMARK   98  A    between atoms: _206  and  _209
REMARK   99  A    between atoms: _209  and  _210
REMARK  100  A    between atoms: _215  and  _217
REMARK  101  A    between atoms: _217  and  _218
REMARK  102  A    between atoms: _217  and  _220
REMARK  103  A    between atoms: _220  and  _221
REMARK  104  A    between atoms: _226  and  _228
REMARK  105  A    between atoms: _228  and  _229
REMARK  106  A    between atoms: _228  and  _231
REMARK  107  A    between atoms: _231  and  _232
REMARK  108  A    between atoms: _235  and  _237
REMARK  109  A    between atoms: _237  and  _238
REMARK  110  A    between atoms: _237  and  _240
REMARK  111  A    between atoms: _240  and  _241
REMARK  112  A    between atoms: _243  and  _245
REMARK  113  A    between atoms: _245  and  _246
REMARK  114  A    between atoms: _245  and  _248
REMARK  115  A    between atoms: _248  and  _249
REMARK  116  A    between atoms: _255  and  _257
REMARK  117  A    between atoms: _257  and  _258
REMARK  118  A    between atoms: _257  and  _260
REMARK  119  A    between atoms: _260  and  _261
REMARK  120  A    between atoms: _271  and  _273
REMARK  121  A    between atoms: _273  and  _274
REMARK  122  A    between atoms: _273  and  _276
REMARK  123  A    between atoms: _276  and  _277
REMARK  124  A    between atoms: _281  and  ZN_291
REMARK  125  A    between atoms: _282  and  _284
REMARK  126  A    between atoms: _284  and  _285
REMARK  127  A    between atoms: _284  and  _287
REMARK  128  A    between atoms: _287  and  _288
REMARK                            x       y       z     vdW  Elec       q    Type
REMARK                         _______ _______ _______ _____ _____    ______ ____
ROOT
ATOM      1  CA  ASP A   3     -18.633  -5.856  12.452  0.00  0.00    +0.160 C 
ENDROOT
BRANCH   1   2
ATOM      2  C   ASP A   3     -20.084  -6.121  12.319  0.00  0.00    +0.241 C 
ATOM      3  O   ASP A   3     -20.897  -5.530  13.068  0.00  0.00    -0.273 OA
ATOM      4  N   LEU A   4     -20.479  -6.995  11.395  0.00  0.00    -0.297 N 
ATOM      5  H   LEU A   4     -19.774  -7.384  10.737  0.00  0.00    +0.150 HD
BRANCH   4   6
ATOM      6  CA  LEU A   4     -21.879  -7.429  11.274  0.00  0.00    +0.149 C 
BRANCH   6   7
ATOM      7  C   LEU A   4     -22.799  -6.255  11.012  0.00  0.00    +0.241 C 
ATOM      8  O   LEU A   4     -23.764  -6.022  11.727  0.00  0.00    -0.273 OA
ATOM      9  N   LEU A   5     -22.517  -5.539   9.929  0.00  0.00    -0.298 N 
ATOM     10  H   LEU A   5     -21.728  -5.845   9.325  0.00  0.00    +0.150 HD
BRANCH   9  11
ATOM     11  CA  LEU A   5     -23.272  -4.329   9.543  0.00  0.00    +0.137 C 
BRANCH  11  12
ATOM     12  C   LEU A   5     -23.861  -4.504   8.151  0.00  0.00    +0.227 C 
ATOM     13  O   LEU A   5     -23.245  -5.151   7.285  0.00  0.00    -0.286 OA
ENDBRANCH  11  12
BRANCH  11  14
ATOM     14  CB  LEU A   5     -22.366  -3.089   9.506  0.00  0.00    +0.028 C 
BRANCH  14  15
ATOM     15  CG  LEU A   5     -21.623  -2.796  10.824  0.00  0.00    +0.002 C 
ATOM     16  CD2 LEU A   5     -22.593  -2.660  12.005  0.00  0.00    +0.000 C 
ATOM     17  CD1 LEU A   5     -20.789  -1.520  10.647  0.00  0.00    +0.000 C 
ENDBRANCH  14  15
ENDBRANCH  11  14
ENDBRANCH   9  11
ENDBRANCH   6   7
BRANCH   6  18
ATOM     18  CB  LEU A   4     -22.373  -8.261  12.474  0.00  0.00    +0.029 C 
BRANCH  18  19
ATOM     19  CG  LEU A   4     -21.450  -9.421  12.887  0.00  0.00    +0.002 C 
ATOM     20  CD2 LEU A   4     -22.120 -10.213  13.986  0.00  0.00    +0.000 C 
ATOM     21  CD1 LEU A   4     -21.092 -10.314  11.715  0.00  0.00    +0.000 C 
ENDBRANCH  18  19
ENDBRANCH   6  18
ENDBRANCH   4   6
ENDBRANCH   1   2
BRANCH   1  23
ATOM     22  C   LEU A   2     -17.283  -3.835  12.455  0.00  0.00    +0.241 C 
ATOM     23  N   ASP A   3     -18.429  -4.451  12.768  0.00  0.00    -0.297 N 
ATOM     24  H   ASP A   3     -19.184  -3.918  13.244  0.00  0.00    +0.150 HD
ATOM     25  O   LEU A   2     -16.363  -4.416  11.854  0.00  0.00    -0.273 OA
BRANCH  22  26
ATOM     26  CA  LEU A   2     -17.118  -2.366  12.864  0.00  0.00    +0.149 C 
BRANCH  26  29
ATOM     27  C   LEU A   1     -15.763  -2.204  14.909  0.00  0.00    +0.238 C 
ATOM     28  O   LEU A   1     -16.765  -2.270  15.637  0.00  0.00    -0.274 OA
ATOM     29  N   LEU A   2     -15.850  -2.234  13.582  0.00  0.00    -0.297 N 
ATOM     30  H   LEU A   2     -14.973  -2.160  13.027  0.00  0.00    +0.150 HD
BRANCH  27  31
ATOM     31  CA  LEU A   1     -14.382  -2.127  15.510  0.00  0.00    +0.145 C 
BRANCH  31  32
ATOM     32  N   LEU A   1     -14.312  -0.926  16.332  0.00  0.00    -0.238 NA
ATOM     33  H   LEU A   1     -14.746  -0.940  17.277  0.00  0.00    +0.142 HD
ENDBRANCH  31  32
BRANCH  31  34
ATOM     34  CB  LEU A   1     -14.076  -3.354  16.372  0.00  0.00    +0.026 C 
BRANCH  34  35
ATOM     35  CG  LEU A   1     -14.244  -4.688  15.662  0.00  0.00    +0.002 C 
ATOM     36  CD2 LEU A   1     -13.963  -5.822  16.613  0.00  0.00    +0.000 C 
ATOM     37  CD1 LEU A   1     -13.315  -4.801  14.451  0.00  0.00    +0.000 C 
ENDBRANCH  34  35
ENDBRANCH  31  34
ENDBRANCH  27  31
ENDBRANCH  26  29
BRANCH  26  38
ATOM     38  CB  LEU A   2     -17.071  -1.575  11.551  0.00  0.00    +0.029 C 
BRANCH  38  39
ATOM     39  CG  LEU A   2     -17.214  -0.035  11.664  0.00  0.00    +0.002 C 
ATOM     40  CD2 LEU A   2     -16.052   0.598  12.381  0.00  0.00    +0.000 C 
ATOM     41  CD1 LEU A   2     -17.307   0.523  10.232  0.00  0.00    +0.000 C 
ENDBRANCH  38  39
ENDBRANCH  26  38
ENDBRANCH  22  26
ENDBRANCH   1  23
BRANCH   1  42
ATOM     42  CB  ASP A   3     -17.986  -6.739  13.562  0.00  0.00    +0.143 C 
BRANCH  42  43
ATOM     43  CG  ASP A   3     -17.781  -8.186  13.171  0.00  0.00    +0.367 C 
ATOM     44  OD2 ASP A   3     -17.236  -8.948  14.050  0.00  0.00    -0.246 OA
ATOM     45  OD1 ASP A   3     -18.078  -8.614  12.087  0.00  0.00    -0.246 OA
ENDBRANCH  42  43
ENDBRANCH   1  42
TORSDOF 20
REMARK  Name = ../refined-set-2016/3pb8/3pb8_pocket.pdb
REMARK  128 active torsions:
REMARK  status: ('A' for Active; 'I' for Inactive)
REMARK    1  A    between atoms: _1  and  _3
REMARK    2  A    between atoms: _3  and  _4
REMARK    3  A    between atoms: _3  and  _6
REMARK    4  A    between atoms: _6  and  _7
REMARK    5  A    between atoms: _12  and  _14
REMARK    6  A    between atoms: _14  and  _15
REMARK    7  A    between atoms: _14  and  _17
REMARK    8  A    between atoms: _17  and  _18
REMARK    9  A    between atoms: _21  and  _23
REMARK   10  A    between atoms: _23  and  _24
REMARK   11  A    between atoms: _23  and  _26
REMARK   12  A    between atoms: _26  and  _27
REMARK   13  A    between atoms: _27  and  _28
REMARK   14  A    between atoms: _28  and  _29
REMARK   15  A    between atoms: _29  and  _30
REMARK   16  A    between atoms: _34  and  _36
REMARK   17  A    between atoms: _36  and  _37
REMARK   18  A    between atoms: _36  and  _39
REMARK   19  A    between atoms: _39  and  _40
REMARK   20  A    between atoms: _46  and  _48
REMARK   21  A    between atoms: _48  and  _49
REMARK   22  A    between atoms: _48  and  _51
REMARK   23  A    between atoms: _51  and  _52
REMARK   24  A    between atoms: _55  and  _57
REMARK   25  A    between atoms: _57  and  _58
REMARK   26  A    between atoms: _57  and  _60
REMARK   27  A    between atoms: _60  and  _61
REMARK   28  A    between atoms: _61  and  _63
REMARK   29  A    between atoms: _63  and  ZN_291
REMARK   30  A    between atoms: _64  and  _66
REMARK   31  A    between atoms: _66  and  _67
REMARK   32  A    between atoms: _66  and  _69
REMARK   33  A    between atoms: _69  and  _70
REMARK   34  A    between atoms: _72  and  _74
REMARK   35  A    between atoms: _74  and  _75
REMARK   36  A    between atoms: _74  and  _77
REMARK   37  A    between atoms: _77  and  _78
REMARK   38  A    between atoms: _78  and  _79
REMARK   39  A    between atoms: _82  and  _84
REMARK   40  A    between atoms: _84  and  _85
REMARK   41  A    between atoms: _84  and  _87
REMARK   42  A    between atoms: _87  and  _88
REMARK   43  A    between atoms: _88  and  _89
REMARK   44  A    between atoms: _89  and  _91
REMARK   45  A    between atoms: _91  and  ZN_291
REMARK   46  A    between atoms: _92  and  _94
REMARK   47  A    between atoms: _94  and  _95
REMARK   48  A    between atoms: _98  and  _100
REMARK   49  A    between atoms: _100  and  _101
REMARK   50  A    between atoms: _100  and  _103
REMARK   51  A    between atoms: _103  and  _104
REMARK   52  A    between atoms: _106  and  _108
REMARK   53  A    between atoms: _108  and  _109
REMARK   54  A    between atoms: _108  and  _111
REMARK   55  A    between atoms: _111  and  _112
REMARK   56  A    between atoms: _115  and  _117
REMARK   57  A    between atoms: _117  and  _118
REMARK   58  A    between atoms: _117  and  _120
REMARK   59  A    between atoms: _120  and  _121
REMARK   60  A    between atoms: _124  and  _126
REMARK   61  A    between atoms: _126  and  _127
REMARK   62  A    between atoms: _126  and  _129
REMARK   63  A    between atoms: _129  and  _130
REMARK   64  A    between atoms: _133  and  _135
REMARK   65  A    between atoms: _135  and  _136
REMARK   66  A    between atoms: _135  and  _138
REMARK   67  A    between atoms: _138  and  _139
REMARK   68  A    between atoms: _142  and  _144
REMARK   69  A    between atoms: _144  and  _145
REMARK   70  A    between atoms: _144  and  _147
REMARK   71  A    between atoms: _147  and  _148
REMARK   72  A    between atoms: _151  and  _153
REMARK   73  A    between atoms: _153  and  _154
REMARK   74  A    between atoms: _153  and  _156
REMARK   75  A    between atoms: _156  and  _157
REMARK   76  A    between atoms: _160  and  _162
REMARK   77  A    between atoms: _162  and  _163
REMARK   78  A    between atoms: _162  and  _165
REMARK   79  A    between atoms: _165  and  _166
REMARK   80  A    between atoms: _168  and  _170
REMARK   81  A    between atoms: _170  and  _171
REMARK   82  A    between atoms: _170  and  _173
REMARK   83  A    between atoms: _176  and  _178
REMARK   84  A    between atoms: _178  and  _179
REMARK   85  A    between atoms: _178  and  _181
REMARK   86  A    between atoms: _181  and  _182
REMARK   87  A    between atoms: _182  and  _183
REMARK   88  A    between atoms: _186  and  _188
REMARK   89  A    between atoms: _188  and  _189
REMARK   90  A    between atoms: _188  and  _191
REMARK   91  A    between atoms: _191  and  _192
REMARK   92  A    between atoms: _195  and  _197
REMARK   93  A    between atoms: _197  and  _198
REMARK   94  A    between atoms: _197  and  _200
REMARK   95  A    between atoms: _200  and  _201
REMARK   96  A    between atoms: _204  and  _206
REMARK   97  A    between atoms: _206  and  _207
REMARK   98  A    between atoms: _206  and  _209
REMARK   99  A    between atoms: _209  and  _210
REMARK  100  A    between atoms: _215  and  _217
REMARK  101  A    between atoms: _217  and  _218
REMARK  102  A    between atoms: _217  and  _220
REMARK  103  A    between atoms: _220  and  _221
REMARK  104  A    between atoms: _226  and  _228
REMARK  105  A    between atoms: _228  and  _229
REMARK  106  A    between atoms: _228  and  _231
REMARK  107  A    between atoms: _231  and  _232
REMARK  108  A    between atoms: _235  and  _237
REMARK  109  A    between atoms: _237  and  _238
REMARK  110  A    between atoms: _237  and  _240
REMARK  111  A    between atoms: _240  and  _241
REMARK  112  A    between atoms: _243  and  _245
REMARK  113  A    between atoms: _245  and  _246
REMARK  114  A    between atoms: _245  and  _248
REMARK  115  A    between atoms: _248  and  _249
REMARK  116  A    between atoms: _255  and  _257
REMARK  117  A    between atoms: _257  and  _258
REMARK  118  A    between atoms: _257  and  _260
REMARK  119  A    between atoms: _260  and  _261
REMARK  120  A    between atoms: _271  and  _273
REMARK  121  A    between atoms: _273  and  _274
REMARK  122  A    between atoms: _273  and  _276
REMARK  123  A    between atoms: _276  and  _277
REMARK  124  A    between atoms: _281  and  ZN_291
REMARK  125  A    between atoms: _282  and  _284
REMARK  126  A    between atoms: _284  and  _285
REMARK  127  A    between atoms: _284  and  _287
REMARK  128  A    between atoms: _287  and  _288
REMARK                            x       y       z     vdW  Elec       q    Type
REMARK                         _______ _______ _______ _____ _____    ______ ____
ROOT
ATOM      1  C   GLU A   3     -15.128 -11.554  19.946  0.00  0.00    +0.241 C 
ATOM      2  N   ASP A   4     -14.114 -10.774  19.620  0.00  0.00    -0.297 N 
ATOM      3  H   ASP A   4     -13.422 -10.503  20.348  0.00  0.00    +0.150 HD
ATOM      4  O   GLU A   3     -15.981 -11.959  19.113  0.00  0.00    -0.273 OA
ENDROOT
BRANCH   2   5
ATOM      5  CA  ASP A   4     -13.948 -10.286  18.255  0.00  0.00    +0.160 C 
BRANCH   5   6
ATOM      6  C   ASP A   4     -12.532  -9.705  18.199  0.00  0.00    +0.241 C 
ATOM      7  O   ASP A   4     -11.778  -9.796  19.178  0.00  0.00    -0.273 OA
ATOM      8  N   ASP A   5     -12.232  -9.097  17.075  0.00  0.00    -0.297 N 
ATOM      9  H   ASP A   5     -12.974  -8.970  16.358  0.00  0.00    +0.150 HD
BRANCH   8  10
ATOM     10  CA  ASP A   5     -10.879  -8.590  16.798  0.00  0.00    +0.160 C 
BRANCH  10  11
ATOM     11  C   ASP A   5     -10.446  -7.500  17.774  0.00  0.00    +0.241 C 
ATOM     12  N   HIS A   6     -11.336  -6.911  18.560  0.00  0.00    -0.298 N 
ATOM     13  H   HIS A   6     -12.346  -7.140  18.467  0.00  0.00    +0.150 HD
ATOM     14  O   ASP A   5      -9.246  -7.174  17.780  0.00  0.00    -0.273 OA
BRANCH  12  15
ATOM     15  CA  HIS A   6     -10.891  -5.932  19.564  0.00  0.00    +0.143 C 
BRANCH  15  16
ATOM     16  C   HIS A   6     -10.234  -6.594  20.750  0.00  0.00    +0.227 C 
ATOM     17  O   HIS A   6      -9.484  -5.876  21.461  0.00  0.00    -0.286 OA
ENDBRANCH  15  16
BRANCH  15  18
ATOM     18  CB  HIS A   6     -12.111  -5.151  20.066  0.00  0.00    +0.075 C 
BRANCH  18  19
ATOM     19  CG  HIS A   6     -13.128  -5.984  20.787  0.00  0.00    +0.082 A 
ATOM     20  CD2 HIS A   6     -13.554  -5.943  22.078  0.00  0.00    +0.115 A 
ATOM     21  NE2 HIS A   6     -14.503  -6.941  22.193  0.00  0.00    -0.221 NA
ATOM     22  CE1 HIS A   6     -14.614  -7.563  21.026  0.00  0.00    +0.199 A 
ATOM     23  ND1 HIS A   6     -13.767  -7.016  20.143  0.00  0.00    -0.227 NA
ENDBRANCH  18  19
ENDBRANCH  15  18
ENDBRANCH  12  15
ENDBRANCH  10  11
BRANCH  10  24
ATOM     24  CB  ASP A   5     -10.852  -8.006  15.404  0.00  0.00    +0.143 C 
BRANCH  24  25
ATOM     25  CG  ASP A   5     -10.759  -9.025  14.296  0.00  0.00    +0.367 C 
ATOM     26  OD2 ASP A   5      -9.998 -10.025  14.477  0.00  0.00    -0.246 OA
ATOM     27  OD1 ASP A   5     -11.410  -8.863  13.227  0.00  0.00    -0.246 OA
ENDBRANCH  24  25
ENDBRANCH  10  24
ENDBRANCH   8  10
ENDBRANCH   5   6
BRANCH   5  28
ATOM     28  CB  ASP A   4     -15.054  -9.253  17.945  0.00  0.00    +0.143 C 
BRANCH  28  29
ATOM     29  CG  ASP A   4     -15.335  -9.000  16.535  0.00  0.00    +0.367 C 
ATOM     30  OD2 ASP A   4     -16.401  -8.311  16.263  0.00  0.00    -0.246 OA
ATOM     31  OD1 ASP A   4     -14.585  -9.424  15.626  0.00  0.00    -0.246 OA
ENDBRANCH  28  29
ENDBRANCH   5  28
ENDBRANCH   2   5
BRANCH   1  32
ATOM     32  CA  GLU A   3     -15.237 -11.987  21.427  0.00  0.00    +0.149 C 
BRANCH  32  34
ATOM     33  C   VAL A   2     -17.392 -10.968  21.818  0.00  0.00    +0.241 C 
ATOM     34  N   GLU A   3     -16.613 -12.022  21.826  0.00  0.00    -0.297 N 
ATOM     35  H   GLU A   3     -17.014 -12.930  22.138  0.00  0.00    +0.150 HD
ATOM     36  O   VAL A   2     -16.962  -9.857  21.510  0.00  0.00    -0.273 OA
BRANCH  33  37
ATOM     37  CA  VAL A   2     -18.828 -11.218  22.097  0.00  0.00    +0.148 C 
BRANCH  37  40
ATOM     38  C   SER A   1     -20.380 -10.318  23.703  0.00  0.00    +0.241 C 
ATOM     39  O   SER A   1     -20.640 -11.431  24.183  0.00  0.00    -0.274 OA
ATOM     40  N   VAL A   2     -19.465 -10.102  22.732  0.00  0.00    -0.297 N 
ATOM     41  H   VAL A   2     -19.224  -9.131  22.447  0.00  0.00    +0.150 HD
BRANCH  38  42
ATOM     42  CA  SER A   1     -21.120  -9.128  24.160  0.00  0.00    +0.174 C 
BRANCH  42  43
ATOM     43  N   SER A   1     -22.430  -9.522  24.631  0.00  0.00    -0.236 NA
ATOM     44  H   SER A   1     -22.491 -10.190  25.426  0.00  0.00    +0.142 HD
ENDBRANCH  42  43
BRANCH  42  45
ATOM     45  CB  SER A   1     -20.339  -8.429  25.318  0.00  0.00    +0.163 C 
BRANCH  45  46
ATOM     46  OG  SER A   1     -20.996  -7.250  25.740  0.00  0.00    -0.380 OA
ATOM     47  H   SER A   1     -21.063  -6.621  24.979  0.00  0.00    +0.211 HD
ENDBRANCH  45  46
ENDBRANCH  42  45
ENDBRANCH  38  42
ENDBRANCH  37  40
BRANCH  37  48
ATOM     48  CB  VAL A   2     -19.526 -11.656  20.762  0.00  0.00    +0.027 C 
ATOM     49  CG2 VAL A   2     -20.991 -12.089  21.052  0.00  0.00    +0.002 C 
ATOM     50  CG1 VAL A   2     -19.483 -10.568  19.735  0.00  0.00    +0.002 C 
ENDBRANCH  37  48
ENDBRANCH  33  37
ENDBRANCH  32  34
BRANCH  32  51
ATOM     51  CB  GLU A   3     -14.555 -13.384  21.536  0.00  0.00    +0.041 C 
BRANCH  51  52
ATOM     52  CG  GLU A   3     -14.639 -14.009  22.819  0.00  0.00    +0.116 C 
BRANCH  52  53
ATOM     53  CD  GLU A   3     -13.829 -13.239  23.783  0.00  0.00    +0.365 C 
ATOM     54  OE2 GLU A   3     -14.462 -12.666  24.721  0.00  0.00    -0.246 OA
ATOM     55  OE1 GLU A   3     -12.561 -13.265  23.633  0.00  0.00    -0.246 OA
ENDBRANCH  52  53
ENDBRANCH  51  52
ENDBRANCH  32  51
ENDBRANCH   1  32
TORSDOF 24
REMARK  Name = ../refined-set-2016/3pb8/3pb8_pocket.pdb
REMARK  128 active torsions:
REMARK  status: ('A' for Active; 'I' for Inactive)
REMARK    1  A    between atoms: _1  and  _3
REMARK    2  A    between atoms: _3  and  _4
REMARK    3  A    between atoms: _3  and  _6
REMARK    4  A    between atoms: _6  and  _7
REMARK    5  A    between atoms: _12  and  _14
REMARK    6  A    between atoms: _14  and  _15
REMARK    7  A    between atoms: _14  and  _17
REMARK    8  A    between atoms: _17  and  _18
REMARK    9  A    between atoms: _21  and  _23
REMARK   10  A    between atoms: _23  and  _24
REMARK   11  A    between atoms: _23  and  _26
REMARK   12  A    between atoms: _26  and  _27
REMARK   13  A    between atoms: _27  and  _28
REMARK   14  A    between atoms: _28  and  _29
REMARK   15  A    between atoms: _29  and  _30
REMARK   16  A    between atoms: _34  and  _36
REMARK   17  A    between atoms: _36  and  _37
REMARK   18  A    between atoms: _36  and  _39
REMARK   19  A    between atoms: _39  and  _40
REMARK   20  A    between atoms: _46  and  _48
REMARK   21  A    between atoms: _48  and  _49
REMARK   22  A    between atoms: _48  and  _51
REMARK   23  A    between atoms: _51  and  _52
REMARK   24  A    between atoms: _55  and  _57
REMARK   25  A    between atoms: _57  and  _58
REMARK   26  A    between atoms: _57  and  _60
REMARK   27  A    between atoms: _60  and  _61
REMARK   28  A    between atoms: _61  and  _63
REMARK   29  A    between atoms: _63  and  ZN_291
REMARK   30  A    between atoms: _64  and  _66
REMARK   31  A    between atoms: _66  and  _67
REMARK   32  A    between atoms: _66  and  _69
REMARK   33  A    between atoms: _69  and  _70
REMARK   34  A    between atoms: _72  and  _74
REMARK   35  A    between atoms: _74  and  _75
REMARK   36  A    between atoms: _74  and  _77
REMARK   37  A    between atoms: _77  and  _78
REMARK   38  A    between atoms: _78  and  _79
REMARK   39  A    between atoms: _82  and  _84
REMARK   40  A    between atoms: _84  and  _85
REMARK   41  A    between atoms: _84  and  _87
REMARK   42  A    between atoms: _87  and  _88
REMARK   43  A    between atoms: _88  and  _89
REMARK   44  A    between atoms: _89  and  _91
REMARK   45  A    between atoms: _91  and  ZN_291
REMARK   46  A    between atoms: _92  and  _94
REMARK   47  A    between atoms: _94  and  _95
REMARK   48  A    between atoms: _98  and  _100
REMARK   49  A    between atoms: _100  and  _101
REMARK   50  A    between atoms: _100  and  _103
REMARK   51  A    between atoms: _103  and  _104
REMARK   52  A    between atoms: _106  and  _108
REMARK   53  A    between atoms: _108  and  _109
REMARK   54  A    between atoms: _108  and  _111
REMARK   55  A    between atoms: _111  and  _112
REMARK   56  A    between atoms: _115  and  _117
REMARK   57  A    between atoms: _117  and  _118
REMARK   58  A    between atoms: _117  and  _120
REMARK   59  A    between atoms: _120  and  _121
REMARK   60  A    between atoms: _124  and  _126
REMARK   61  A    between atoms: _126  and  _127
REMARK   62  A    between atoms: _126  and  _129
REMARK   63  A    between atoms: _129  and  _130
REMARK   64  A    between atoms: _133  and  _135
REMARK   65  A    between atoms: _135  and  _136
REMARK   66  A    between atoms: _135  and  _138
REMARK   67  A    between atoms: _138  and  _139
REMARK   68  A    between atoms: _142  and  _144
REMARK   69  A    between atoms: _144  and  _145
REMARK   70  A    between atoms: _144  and  _147
REMARK   71  A    between atoms: _147  and  _148
REMARK   72  A    between atoms: _151  and  _153
REMARK   73  A    between atoms: _153  and  _154
REMARK   74  A    between atoms: _153  and  _156
REMARK   75  A    between atoms: _156  and  _157
REMARK   76  A    between atoms: _160  and  _162
REMARK   77  A    between atoms: _162  and  _163
REMARK   78  A    between atoms: _162  and  _165
REMARK   79  A    between atoms: _165  and  _166
REMARK   80  A    between atoms: _168  and  _170
REMARK   81  A    between atoms: _170  and  _171
REMARK   82  A    between atoms: _170  and  _173
REMARK   83  A    between atoms: _176  and  _178
REMARK   84  A    between atoms: _178  and  _179
REMARK   85  A    between atoms: _178  and  _181
REMARK   86  A    between atoms: _181  and  _182
REMARK   87  A    between atoms: _182  and  _183
REMARK   88  A    between atoms: _186  and  _188
REMARK   89  A    between atoms: _188  and  _189
REMARK   90  A    between atoms: _188  and  _191
REMARK   91  A    between atoms: _191  and  _192
REMARK   92  A    between atoms: _195  and  _197
REMARK   93  A    between atoms: _197  and  _198
REMARK   94  A    between atoms: _197  and  _200
REMARK   95  A    between atoms: _200  and  _201
REMARK   96  A    between atoms: _204  and  _206
REMARK   97  A    between atoms: _206  and  _207
REMARK   98  A    between atoms: _206  and  _209
REMARK   99  A    between atoms: _209  and  _210
REMARK  100  A    between atoms: _215  and  _217
REMARK  101  A    between atoms: _217  and  _218
REMARK  102  A    between atoms: _217  and  _220
REMARK  103  A    between atoms: _220  and  _221
REMARK  104  A    between atoms: _226  and  _228
REMARK  105  A    between atoms: _228  and  _229
REMARK  106  A    between atoms: _228  and  _231
REMARK  107  A    between atoms: _231  and  _232
REMARK  108  A    between atoms: _235  and  _237
REMARK  109  A    between atoms: _237  and  _238
REMARK  110  A    between atoms: _237  and  _240
REMARK  111  A    between atoms: _240  and  _241
REMARK  112  A    between atoms: _243  and  _245
REMARK  113  A    between atoms: _245  and  _246
REMARK  114  A    between atoms: _245  and  _248
REMARK  115  A    between atoms: _248  and  _249
REMARK  116  A    between atoms: _255  and  _257
REMARK  117  A    between atoms: _257  and  _258
REMARK  118  A    between atoms: _257  and  _260
REMARK  119  A    between atoms: _260  and  _261
REMARK  120  A    between atoms: _271  and  _273
REMARK  121  A    between atoms: _273  and  _274
REMARK  122  A    between atoms: _273  and  _276
REMARK  123  A    between atoms: _276  and  _277
REMARK  124  A    between atoms: _281  and  ZN_291
REMARK  125  A    between atoms: _282  and  _284
REMARK  126  A    between atoms: _284  and  _285
REMARK  127  A    between atoms: _284  and  _287
REMARK  128  A    between atoms: _287  and  _288
REMARK                            x       y       z     vdW  Elec       q    Type
REMARK                         _______ _______ _______ _____ _____    ______ ____
ROOT
ATOM      1  CB  HIS A   1     -17.573  -3.585  20.403  0.00  0.00    +0.072 C 
ENDROOT
BRANCH   1   2
ATOM      2  CG  HIS A   1     -17.512  -4.861  19.669  0.00  0.00    +0.082 A 
ATOM      3  ND1 HIS A   1     -17.722  -6.055  20.335  0.00  0.00    -0.227 NA
ATOM      4  CE1 HIS A   1     -17.524  -7.009  19.425  0.00  0.00    +0.199 A 
ATOM      5  NE2 HIS A   1     -17.245  -6.492  18.235  0.00  0.00    -0.221 NA
ATOM      6  CD2 HIS A   1     -17.251  -5.127  18.369  0.00  0.00    +0.115 A 
ENDBRANCH   1   2
BRANCH   1   7
ATOM      7  CA  HIS A   1     -17.506  -2.339  19.525  0.00  0.00    +0.139 C 
BRANCH   7   8
ATOM      8  N   HIS A   1     -17.212  -1.166  20.361  0.00  0.00    -0.239 NA
ATOM      9  H   HIS A   1     -17.736  -1.029  21.249  0.00  0.00    +0.142 HD
ENDBRANCH   7   8
BRANCH   7  10
ATOM     10  C   HIS A   1     -18.787  -2.094  18.770  0.00  0.00    +0.224 C 
ATOM     11  O   HIS A   1     -19.899  -2.207  19.347  0.00  0.00    -0.287 OA
ENDBRANCH   7  10
ENDBRANCH   1   7
TORSDOF 4
REMARK  Name = ../refined-set-2016/3pb8/3pb8_pocket.pdb
REMARK  128 active torsions:
REMARK  status: ('A' for Active; 'I' for Inactive)
REMARK    1  A    between atoms: _1  and  _3
REMARK    2  A    between atoms: _3  and  _4
REMARK    3  A    between atoms: _3  and  _6
REMARK    4  A    between atoms: _6  and  _7
REMARK    5  A    between atoms: _12  and  _14
REMARK    6  A    between atoms: _14  and  _15
REMARK    7  A    between atoms: _14  and  _17
REMARK    8  A    between atoms: _17  and  _18
REMARK    9  A    between atoms: _21  and  _23
REMARK   10  A    between atoms: _23  and  _24
REMARK   11  A    between atoms: _23  and  _26
REMARK   12  A    between atoms: _26  and  _27
REMARK   13  A    between atoms: _27  and  _28
REMARK   14  A    between atoms: _28  and  _29
REMARK   15  A    between atoms: _29  and  _30
REMARK   16  A    between atoms: _34  and  _36
REMARK   17  A    between atoms: _36  and  _37
REMARK   18  A    between atoms: _36  and  _39
REMARK   19  A    between atoms: _39  and  _40
REMARK   20  A    between atoms: _46  and  _48
REMARK   21  A    between atoms: _48  and  _49
REMARK   22  A    between atoms: _48  and  _51
REMARK   23  A    between atoms: _51  and  _52
REMARK   24  A    between atoms: _55  and  _57
REMARK   25  A    between atoms: _57  and  _58
REMARK   26  A    between atoms: _57  and  _60
REMARK   27  A    between atoms: _60  and  _61
REMARK   28  A    between atoms: _61  and  _63
REMARK   29  A    between atoms: _63  and  ZN_291
REMARK   30  A    between atoms: _64  and  _66
REMARK   31  A    between atoms: _66  and  _67
REMARK   32  A    between atoms: _66  and  _69
REMARK   33  A    between atoms: _69  and  _70
REMARK   34  A    between atoms: _72  and  _74
REMARK   35  A    between atoms: _74  and  _75
REMARK   36  A    between atoms: _74  and  _77
REMARK   37  A    between atoms: _77  and  _78
REMARK   38  A    between atoms: _78  and  _79
REMARK   39  A    between atoms: _82  and  _84
REMARK   40  A    between atoms: _84  and  _85
REMARK   41  A    between atoms: _84  and  _87
REMARK   42  A    between atoms: _87  and  _88
REMARK   43  A    between atoms: _88  and  _89
REMARK   44  A    between atoms: _89  and  _91
REMARK   45  A    between atoms: _91  and  ZN_291
REMARK   46  A    between atoms: _92  and  _94
REMARK   47  A    between atoms: _94  and  _95
REMARK   48  A    between atoms: _98  and  _100
REMARK   49  A    between atoms: _100  and  _101
REMARK   50  A    between atoms: _100  and  _103
REMARK   51  A    between atoms: _103  and  _104
REMARK   52  A    between atoms: _106  and  _108
REMARK   53  A    between atoms: _108  and  _109
REMARK   54  A    between atoms: _108  and  _111
REMARK   55  A    between atoms: _111  and  _112
REMARK   56  A    between atoms: _115  and  _117
REMARK   57  A    between atoms: _117  and  _118
REMARK   58  A    between atoms: _117  and  _120
REMARK   59  A    between atoms: _120  and  _121
REMARK   60  A    between atoms: _124  and  _126
REMARK   61  A    between atoms: _126  and  _127
REMARK   62  A    between atoms: _126  and  _129
REMARK   63  A    between atoms: _129  and  _130
REMARK   64  A    between atoms: _133  and  _135
REMARK   65  A    between atoms: _135  and  _136
REMARK   66  A    between atoms: _135  and  _138
REMARK   67  A    between atoms: _138  and  _139
REMARK   68  A    between atoms: _142  and  _144
REMARK   69  A    between atoms: _144  and  _145
REMARK   70  A    between atoms: _144  and  _147
REMARK   71  A    between atoms: _147  and  _148
REMARK   72  A    between atoms: _151  and  _153
REMARK   73  A    between atoms: _153  and  _154
REMARK   74  A    between atoms: _153  and  _156
REMARK   75  A    between atoms: _156  and  _157
REMARK   76  A    between atoms: _160  and  _162
REMARK   77  A    between atoms: _162  and  _163
REMARK   78  A    between atoms: _162  and  _165
REMARK   79  A    between atoms: _165  and  _166
REMARK   80  A    between atoms: _168  and  _170
REMARK   81  A    between atoms: _170  and  _171
REMARK   82  A    between atoms: _170  and  _173
REMARK   83  A    between atoms: _176  and  _178
REMARK   84  A    between atoms: _178  and  _179
REMARK   85  A    between atoms: _178  and  _181
REMARK   86  A    between atoms: _181  and  _182
REMARK   87  A    between atoms: _182  and  _183
REMARK   88  A    between atoms: _186  and  _188
REMARK   89  A    between atoms: _188  and  _189
REMARK   90  A    between atoms: _188  and  _191
REMARK   91  A    between atoms: _191  and  _192
REMARK   92  A    between atoms: _195  and  _197
REMARK   93  A    between atoms: _197  and  _198
REMARK   94  A    between atoms: _197  and  _200
REMARK   95  A    between atoms: _200  and  _201
REMARK   96  A    between atoms: _204  and  _206
REMARK   97  A    between atoms: _206  and  _207
REMARK   98  A    between atoms: _206  and  _209
REMARK   99  A    between atoms: _209  and  _210
REMARK  100  A    between atoms: _215  and  _217
REMARK  101  A    between atoms: _217  and  _218
REMARK  102  A    between atoms: _217  and  _220
REMARK  103  A    between atoms: _220  and  _221
REMARK  104  A    between atoms: _226  and  _228
REMARK  105  A    between atoms: _228  and  _229
REMARK  106  A    between atoms: _228  and  _231
REMARK  107  A    between atoms: _231  and  _232
REMARK  108  A    between atoms: _235  and  _237
REMARK  109  A    between atoms: _237  and  _238
REMARK  110  A    between atoms: _237  and  _240
REMARK  111  A    between atoms: _240  and  _241
REMARK  112  A    between atoms: _243  and  _245
REMARK  113  A    between atoms: _245  and  _246
REMARK  114  A    between atoms: _245  and  _248
REMARK  115  A    between atoms: _248  and  _249
REMARK  116  A    between atoms: _255  and  _257
REMARK  117  A    between atoms: _257  and  _258
REMARK  118  A    between atoms: _257  and  _260
REMARK  119  A    between atoms: _260  and  _261
REMARK  120  A    between atoms: _271  and  _273
REMARK  121  A    between atoms: _273  and  _274
REMARK  122  A    between atoms: _273  and  _276
REMARK  123  A    between atoms: _276  and  _277
REMARK  124  A    between atoms: _281  and  ZN_291
REMARK  125  A    between atoms: _282  and  _284
REMARK  126  A    between atoms: _284  and  _285
REMARK  127  A    between atoms: _284  and  _287
REMARK  128  A    between atoms: _287  and  _288
REMARK                            x       y       z     vdW  Elec       q    Type
REMARK                         _______ _______ _______ _____ _____    ______ ____
ROOT
ATOM      1  C   ILE A   1     -22.942  -4.879  16.471  0.00  0.00    +0.238 C 
ATOM      2  O   ILE A   1     -23.386  -4.524  17.559  0.00  0.00    -0.274 OA
ATOM      3  N   SER A   2     -23.757  -5.360  15.523  0.00  0.00    -0.296 N 
ATOM      4  H   SER A   2     -23.388  -5.576  14.575  0.00  0.00    +0.150 HD
ENDROOT
BRANCH   1   5
ATOM      5  CA  ILE A   1     -21.451  -4.763  16.156  0.00  0.00    +0.145 C 
BRANCH   5   6
ATOM      6  N   ILE A   1     -21.024  -3.478  16.621  0.00  0.00    -0.238 NA
ATOM      7  H   ILE A   1     -21.316  -3.196  17.578  0.00  0.00    +0.142 HD
ENDBRANCH   5   6
BRANCH   5   8
ATOM      8  CB  ILE A   1     -20.681  -5.927  16.831  0.00  0.00    +0.025 C 
ATOM      9  CG2 ILE A   1     -20.771  -5.919  18.352  0.00  0.00    +0.002 C 
BRANCH   8  10
ATOM     10  CG1 ILE A   1     -21.078  -7.273  16.245  0.00  0.00    +0.002 C 
ATOM     11  CD1 ILE A   1     -20.142  -8.415  16.660  0.00  0.00    +0.000 C 
ENDBRANCH   8  10
ENDBRANCH   5   8
ENDBRANCH   1   5
BRANCH   3  12
ATOM     12  CA  SER A   2     -25.179  -5.580  15.833  0.00  0.00    +0.166 C 
BRANCH  12  13
ATOM     13  CB  SER A   2     -25.306  -6.746  16.808  0.00  0.00    +0.229 C 
ATOM     14  OG  SER A   2     -24.778  -7.814  16.562  0.00  0.00    -0.286 OA
ENDBRANCH  12  13
BRANCH  12  15
ATOM     15  C   SER A   2     -25.938  -5.888  14.562  0.00  0.00    +0.165 C 
BRANCH  15  16
ATOM     16  O   SER A   2     -27.370  -5.939  14.869  0.00  0.00    -0.380 OA
ATOM     17  H   SER A   2     -27.537  -6.647  15.541  0.00  0.00    +0.211 HD
ENDBRANCH  15  16
ENDBRANCH  12  15
ENDBRANCH   3  12
TORSDOF 8
REMARK  Name = ../refined-set-2016/3pb8/3pb8_pocket.pdb
REMARK  128 active torsions:
REMARK  status: ('A' for Active; 'I' for Inactive)
REMARK    1  A    between atoms: _1  and  _3
REMARK    2  A    between atoms: _3  and  _4
REMARK    3  A    between atoms: _3  and  _6
REMARK    4  A    between atoms: _6  and  _7
REMARK    5  A    between atoms: _12  and  _14
REMARK    6  A    between atoms: _14  and  _15
REMARK    7  A    between atoms: _14  and  _17
REMARK    8  A    between atoms: _17  and  _18
REMARK    9  A    between atoms: _21  and  _23
REMARK   10  A    between atoms: _23  and  _24
REMARK   11  A    between atoms: _23  and  _26
REMARK   12  A    between atoms: _26  and  _27
REMARK   13  A    between atoms: _27  and  _28
REMARK   14  A    between atoms: _28  and  _29
REMARK   15  A    between atoms: _29  and  _30
REMARK   16  A    between atoms: _34  and  _36
REMARK   17  A    between atoms: _36  and  _37
REMARK   18  A    between atoms: _36  and  _39
REMARK   19  A    between atoms: _39  and  _40
REMARK   20  A    between atoms: _46  and  _48
REMARK   21  A    between atoms: _48  and  _49
REMARK   22  A    between atoms: _48  and  _51
REMARK   23  A    between atoms: _51  and  _52
REMARK   24  A    between atoms: _55  and  _57
REMARK   25  A    between atoms: _57  and  _58
REMARK   26  A    between atoms: _57  and  _60
REMARK   27  A    between atoms: _60  and  _61
REMARK   28  A    between atoms: _61  and  _63
REMARK   29  A    between atoms: _63  and  ZN_291
REMARK   30  A    between atoms: _64  and  _66
REMARK   31  A    between atoms: _66  and  _67
REMARK   32  A    between atoms: _66  and  _69
REMARK   33  A    between atoms: _69  and  _70
REMARK   34  A    between atoms: _72  and  _74
REMARK   35  A    between atoms: _74  and  _75
REMARK   36  A    between atoms: _74  and  _77
REMARK   37  A    between atoms: _77  and  _78
REMARK   38  A    between atoms: _78  and  _79
REMARK   39  A    between atoms: _82  and  _84
REMARK   40  A    between atoms: _84  and  _85
REMARK   41  A    between atoms: _84  and  _87
REMARK   42  A    between atoms: _87  and  _88
REMARK   43  A    between atoms: _88  and  _89
REMARK   44  A    between atoms: _89  and  _91
REMARK   45  A    between atoms: _91  and  ZN_291
REMARK   46  A    between atoms: _92  and  _94
REMARK   47  A    between atoms: _94  and  _95
REMARK   48  A    between atoms: _98  and  _100
REMARK   49  A    between atoms: _100  and  _101
REMARK   50  A    between atoms: _100  and  _103
REMARK   51  A    between atoms: _103  and  _104
REMARK   52  A    between atoms: _106  and  _108
REMARK   53  A    between atoms: _108  and  _109
REMARK   54  A    between atoms: _108  and  _111
REMARK   55  A    between atoms: _111  and  _112
REMARK   56  A    between atoms: _115  and  _117
REMARK   57  A    between atoms: _117  and  _118
REMARK   58  A    between atoms: _117  and  _120
REMARK   59  A    between atoms: _120  and  _121
REMARK   60  A    between atoms: _124  and  _126
REMARK   61  A    between atoms: _126  and  _127
REMARK   62  A    between atoms: _126  and  _129
REMARK   63  A    between atoms: _129  and  _130
REMARK   64  A    between atoms: _133  and  _135
REMARK   65  A    between atoms: _135  and  _136
REMARK   66  A    between atoms: _135  and  _138
REMARK   67  A    between atoms: _138  and  _139
REMARK   68  A    between atoms: _142  and  _144
REMARK   69  A    between atoms: _144  and  _145
REMARK   70  A    between atoms: _144  and  _147
REMARK   71  A    between atoms: _147  and  _148
REMARK   72  A    between atoms: _151  and  _153
REMARK   73  A    between atoms: _153  and  _154
REMARK   74  A    between atoms: _153  and  _156
REMARK   75  A    between atoms: _156  and  _157
REMARK   76  A    between atoms: _160  and  _162
REMARK   77  A    between atoms: _162  and  _163
REMARK   78  A    between atoms: _162  and  _165
REMARK   79  A    between atoms: _165  and  _166
REMARK   80  A    between atoms: _168  and  _170
REMARK   81  A    between atoms: _170  and  _171
REMARK   82  A    between atoms: _170  and  _173
REMARK   83  A    between atoms: _176  and  _178
REMARK   84  A    between atoms: _178  and  _179
REMARK   85  A    between atoms: _178  and  _181
REMARK   86  A    between atoms: _181  and  _182
REMARK   87  A    between atoms: _182  and  _183
REMARK   88  A    between atoms: _186  and  _188
REMARK   89  A    between atoms: _188  and  _189
REMARK   90  A    between atoms: _188  and  _191
REMARK   91  A    between atoms: _191  and  _192
REMARK   92  A    between atoms: _195  and  _197
REMARK   93  A    between atoms: _197  and  _198
REMARK   94  A    between atoms: _197  and  _200
REMARK   95  A    between atoms: _200  and  _201
REMARK   96  A    between atoms: _204  and  _206
REMARK   97  A    between atoms: _206  and  _207
REMARK   98  A    between atoms: _206  and  _209
REMARK   99  A    between atoms: _209  and  _210
REMARK  100  A    between atoms: _215  and  _217
REMARK  101  A    between atoms: _217  and  _218
REMARK  102  A    between atoms: _217  and  _220
REMARK  103  A    between atoms: _220  and  _221
REMARK  104  A    between atoms: _226  and  _228
REMARK  105  A    between atoms: _228  and  _229
REMARK  106  A    between atoms: _228  and  _231
REMARK  107  A    between atoms: _231  and  _232
REMARK  108  A    between atoms: _235  and  _237
REMARK  109  A    between atoms: _237  and  _238
REMARK  110  A    between atoms: _237  and  _240
REMARK  111  A    between atoms: _240  and  _241
REMARK  112  A    between atoms: _243  and  _245
REMARK  113  A    between atoms: _245  and  _246
REMARK  114  A    between atoms: _245  and  _248
REMARK  115  A    between atoms: _248  and  _249
REMARK  116  A    between atoms: _255  and  _257
REMARK  117  A    between atoms: _257  and  _258
REMARK  118  A    between atoms: _257  and  _260
REMARK  119  A    between atoms: _260  and  _261
REMARK  120  A    between atoms: _271  and  _273
REMARK  121  A    between atoms: _273  and  _274
REMARK  122  A    between atoms: _273  and  _276
REMARK  123  A    between atoms: _276  and  _277
REMARK  124  A    between atoms: _281  and  ZN_291
REMARK  125  A    between atoms: _282  and  _284
REMARK  126  A    between atoms: _284  and  _285
REMARK  127  A    between atoms: _284  and  _287
REMARK  128  A    between atoms: _287  and  _288
REMARK                            x       y       z     vdW  Elec       q    Type
REMARK                         _______ _______ _______ _____ _____    ______ ____
ROOT
ATOM      1  CB  PHE A   1     -25.865 -11.910  14.954  0.00  0.00    +0.051 C 
ENDROOT
BRANCH   1   2
ATOM      2  CG  PHE A   1     -24.627 -12.037  15.857  0.00  0.00    -0.020 A 
ATOM      3  CD2 PHE A   1     -24.146 -10.979  16.640  0.00  0.00    -0.004 A 
ATOM      4  CE2 PHE A   1     -23.003 -11.132  17.425  0.00  0.00    -0.000 A 
ATOM      5  CZ  PHE A   1     -22.342 -12.292  17.359  0.00  0.00    -0.000 A 
ATOM      6  CE1 PHE A   1     -22.785 -13.375  16.611  0.00  0.00    -0.000 A 
ATOM      7  CD1 PHE A   1     -23.979 -13.229  15.883  0.00  0.00    -0.004 A 
ENDBRANCH   1   2
BRANCH   1   8
ATOM      8  CA  PHE A   1     -26.621 -10.594  15.006  0.00  0.00    +0.137 C 
BRANCH   8   9
ATOM      9  N   PHE A   1     -27.276 -10.489  16.318  0.00  0.00    -0.239 NA
ATOM     10  H   PHE A   1     -27.239 -11.302  16.965  0.00  0.00    +0.142 HD
ENDBRANCH   8   9
BRANCH   8  11
ATOM     11  C   PHE A   1     -27.633 -10.555  13.894  0.00  0.00    +0.224 C 
ATOM     12  O   PHE A   1     -28.830 -10.810  14.098  0.00  0.00    -0.287 OA
ENDBRANCH   8  11
ENDBRANCH   1   8
TORSDOF 4
REMARK  Name = ../refined-set-2016/3pb8/3pb8_pocket.pdb
REMARK  128 active torsions:
REMARK  status: ('A' for Active; 'I' for Inactive)
REMARK    1  A    between atoms: _1  and  _3
REMARK    2  A    between atoms: _3  and  _4
REMARK    3  A    between atoms: _3  and  _6
REMARK    4  A    between atoms: _6  and  _7
REMARK    5  A    between atoms: _12  and  _14
REMARK    6  A    between atoms: _14  and  _15
REMARK    7  A    between atoms: _14  and  _17
REMARK    8  A    between atoms: _17  and  _18
REMARK    9  A    between atoms: _21  and  _23
REMARK   10  A    between atoms: _23  and  _24
REMARK   11  A    between atoms: _23  and  _26
REMARK   12  A    between atoms: _26  and  _27
REMARK   13  A    between atoms: _27  and  _28
REMARK   14  A    between atoms: _28  and  _29
REMARK   15  A    between atoms: _29  and  _30
REMARK   16  A    between atoms: _34  and  _36
REMARK   17  A    between atoms: _36  and  _37
REMARK   18  A    between atoms: _36  and  _39
REMARK   19  A    between atoms: _39  and  _40
REMARK   20  A    between atoms: _46  and  _48
REMARK   21  A    between atoms: _48  and  _49
REMARK   22  A    between atoms: _48  and  _51
REMARK   23  A    between atoms: _51  and  _52
REMARK   24  A    between atoms: _55  and  _57
REMARK   25  A    between atoms: _57  and  _58
REMARK   26  A    between atoms: _57  and  _60
REMARK   27  A    between atoms: _60  and  _61
REMARK   28  A    between atoms: _61  and  _63
REMARK   29  A    between atoms: _63  and  ZN_291
REMARK   30  A    between atoms: _64  and  _66
REMARK   31  A    between atoms: _66  and  _67
REMARK   32  A    between atoms: _66  and  _69
REMARK   33  A    between atoms: _69  and  _70
REMARK   34  A    between atoms: _72  and  _74
REMARK   35  A    between atoms: _74  and  _75
REMARK   36  A    between atoms: _74  and  _77
REMARK   37  A    between atoms: _77  and  _78
REMARK   38  A    between atoms: _78  and  _79
REMARK   39  A    between atoms: _82  and  _84
REMARK   40  A    between atoms: _84  and  _85
REMARK   41  A    between atoms: _84  and  _87
REMARK   42  A    between atoms: _87  and  _88
REMARK   43  A    between atoms: _88  and  _89
REMARK   44  A    between atoms: _89  and  _91
REMARK   45  A    between atoms: _91  and  ZN_291
REMARK   46  A    between atoms: _92  and  _94
REMARK   47  A    between atoms: _94  and  _95
REMARK   48  A    between atoms: _98  and  _100
REMARK   49  A    between atoms: _100  and  _101
REMARK   50  A    between atoms: _100  and  _103
REMARK   51  A    between atoms: _103  and  _104
REMARK   52  A    between atoms: _106  and  _108
REMARK   53  A    between atoms: _108  and  _109
REMARK   54  A    between atoms: _108  and  _111
REMARK   55  A    between atoms: _111  and  _112
REMARK   56  A    between atoms: _115  and  _117
REMARK   57  A    between atoms: _117  and  _118
REMARK   58  A    between atoms: _117  and  _120
REMARK   59  A    between atoms: _120  and  _121
REMARK   60  A    between atoms: _124  and  _126
REMARK   61  A    between atoms: _126  and  _127
REMARK   62  A    between atoms: _126  and  _129
REMARK   63  A    between atoms: _129  and  _130
REMARK   64  A    between atoms: _133  and  _135
REMARK   65  A    between atoms: _135  and  _136
REMARK   66  A    between atoms: _135  and  _138
REMARK   67  A    between atoms: _138  and  _139
REMARK   68  A    between atoms: _142  and  _144
REMARK   69  A    between atoms: _144  and  _145
REMARK   70  A    between atoms: _144  and  _147
REMARK   71  A    between atoms: _147  and  _148
REMARK   72  A    between atoms: _151  and  _153
REMARK   73  A    between atoms: _153  and  _154
REMARK   74  A    between atoms: _153  and  _156
REMARK   75  A    between atoms: _156  and  _157
REMARK   76  A    between atoms: _160  and  _162
REMARK   77  A    between atoms: _162  and  _163
REMARK   78  A    between atoms: _162  and  _165
REMARK   79  A    between atoms: _165  and  _166
REMARK   80  A    between atoms: _168  and  _170
REMARK   81  A    between atoms: _170  and  _171
REMARK   82  A    between atoms: _170  and  _173
REMARK   83  A    between atoms: _176  and  _178
REMARK   84  A    between atoms: _178  and  _179
REMARK   85  A    between atoms: _178  and  _181
REMARK   86  A    between atoms: _181  and  _182
REMARK   87  A    between atoms: _182  and  _183
REMARK   88  A    between atoms: _186  and  _188
REMARK   89  A    between atoms: _188  and  _189
REMARK   90  A    between atoms: _188  and  _191
REMARK   91  A    between atoms: _191  and  _192
REMARK   92  A    between atoms: _195  and  _197
REMARK   93  A    between atoms: _197  and  _198
REMARK   94  A    between atoms: _197  and  _200
REMARK   95  A    between atoms: _200  and  _201
REMARK   96  A    between atoms: _204  and  _206
REMARK   97  A    between atoms: _206  and  _207
REMARK   98  A    between atoms: _206  and  _209
REMARK   99  A    between atoms: _209  and  _210
REMARK  100  A    between atoms: _215  and  _217
REMARK  101  A    between atoms: _217  and  _218
REMARK  102  A    between atoms: _217  and  _220
REMARK  103  A    between atoms: _220  and  _221
REMARK  104  A    between atoms: _226  and  _228
REMARK  105  A    between atoms: _228  and  _229
REMARK  106  A    between atoms: _228  and  _231
REMARK  107  A    between atoms: _231  and  _232
REMARK  108  A    between atoms: _235  and  _237
REMARK  109  A    between atoms: _237  and  _238
REMARK  110  A    between atoms: _237  and  _240
REMARK  111  A    between atoms: _240  and  _241
REMARK  112  A    between atoms: _243  and  _245
REMARK  113  A    between atoms: _245  and  _246
REMARK  114  A    between atoms: _245  and  _248
REMARK  115  A    between atoms: _248  and  _249
REMARK  116  A    between atoms: _255  and  _257
REMARK  117  A    between atoms: _257  and  _258
REMARK  118  A    between atoms: _257  and  _260
REMARK  119  A    between atoms: _260  and  _261
REMARK  120  A    between atoms: _271  and  _273
REMARK  121  A    between atoms: _273  and  _274
REMARK  122  A    between atoms: _273  and  _276
REMARK  123  A    between atoms: _276  and  _277
REMARK  124  A    between atoms: _281  and  ZN_291
REMARK  125  A    between atoms: _282  and  _284
REMARK  126  A    between atoms: _284  and  _285
REMARK  127  A    between atoms: _284  and  _287
REMARK  128  A    between atoms: _287  and  _288
REMARK                            x       y       z     vdW  Elec       q    Type
REMARK                         _______ _______ _______ _____ _____    ______ ____
ROOT
ATOM      1  CA  ASP A   1     -25.361 -13.474   4.083  0.00  0.00    +0.144 C 
ENDROOT
BRANCH   1   2
ATOM      2  N   ASP A   1     -25.940 -14.792   3.768  0.00  0.00    -0.239 NA
ATOM      3  H   ASP A   1     -25.414 -15.660   3.994  0.00  0.00    +0.142 HD
ENDBRANCH   1   2
BRANCH   1   4
ATOM      4  C   ASP A   1     -24.721 -12.919   2.809  0.00  0.00    +0.225 C 
ATOM      5  O   ASP A   1     -23.515 -13.008   2.592  0.00  0.00    -0.287 OA
ENDBRANCH   1   4
BRANCH   1   6
ATOM      6  CB  ASP A   1     -24.368 -13.591   5.214  0.00  0.00    +0.139 C 
BRANCH   6   7
ATOM      7  CG  ASP A   1     -23.867 -12.247   5.680  0.00  0.00    +0.367 C 
ATOM      8  OD2 ASP A   1     -23.008 -12.194   6.582  0.00  0.00    -0.246 OA
ATOM      9  OD1 ASP A   1     -24.312 -11.210   5.094  0.00  0.00    -0.246 OA
ENDBRANCH   6   7
ENDBRANCH   1   6
TORSDOF 4
REMARK  Name = ../refined-set-2016/3pb8/3pb8_pocket.pdb
REMARK  128 active torsions:
REMARK  status: ('A' for Active; 'I' for Inactive)
REMARK    1  A    between atoms: _1  and  _3
REMARK    2  A    between atoms: _3  and  _4
REMARK    3  A    between atoms: _3  and  _6
REMARK    4  A    between atoms: _6  and  _7
REMARK    5  A    between atoms: _12  and  _14
REMARK    6  A    between atoms: _14  and  _15
REMARK    7  A    between atoms: _14  and  _17
REMARK    8  A    between atoms: _17  and  _18
REMARK    9  A    between atoms: _21  and  _23
REMARK   10  A    between atoms: _23  and  _24
REMARK   11  A    between atoms: _23  and  _26
REMARK   12  A    between atoms: _26  and  _27
REMARK   13  A    between atoms: _27  and  _28
REMARK   14  A    between atoms: _28  and  _29
REMARK   15  A    between atoms: _29  and  _30
REMARK   16  A    between atoms: _34  and  _36
REMARK   17  A    between atoms: _36  and  _37
REMARK   18  A    between atoms: _36  and  _39
REMARK   19  A    between atoms: _39  and  _40
REMARK   20  A    between atoms: _46  and  _48
REMARK   21  A    between atoms: _48  and  _49
REMARK   22  A    between atoms: _48  and  _51
REMARK   23  A    between atoms: _51  and  _52
REMARK   24  A    between atoms: _55  and  _57
REMARK   25  A    between atoms: _57  and  _58
REMARK   26  A    between atoms: _57  and  _60
REMARK   27  A    between atoms: _60  and  _61
REMARK   28  A    between atoms: _61  and  _63
REMARK   29  A    between atoms: _63  and  ZN_291
REMARK   30  A    between atoms: _64  and  _66
REMARK   31  A    between atoms: _66  and  _67
REMARK   32  A    between atoms: _66  and  _69
REMARK   33  A    between atoms: _69  and  _70
REMARK   34  A    between atoms: _72  and  _74
REMARK   35  A    between atoms: _74  and  _75
REMARK   36  A    between atoms: _74  and  _77
REMARK   37  A    between atoms: _77  and  _78
REMARK   38  A    between atoms: _78  and  _79
REMARK   39  A    between atoms: _82  and  _84
REMARK   40  A    between atoms: _84  and  _85
REMARK   41  A    between atoms: _84  and  _87
REMARK   42  A    between atoms: _87  and  _88
REMARK   43  A    between atoms: _88  and  _89
REMARK   44  A    between atoms: _89  and  _91
REMARK   45  A    between atoms: _91  and  ZN_291
REMARK   46  A    between atoms: _92  and  _94
REMARK   47  A    between atoms: _94  and  _95
REMARK   48  A    between atoms: _98  and  _100
REMARK   49  A    between atoms: _100  and  _101
REMARK   50  A    between atoms: _100  and  _103
REMARK   51  A    between atoms: _103  and  _104
REMARK   52  A    between atoms: _106  and  _108
REMARK   53  A    between atoms: _108  and  _109
REMARK   54  A    between atoms: _108  and  _111
REMARK   55  A    between atoms: _111  and  _112
REMARK   56  A    between atoms: _115  and  _117
REMARK   57  A    between atoms: _117  and  _118
REMARK   58  A    between atoms: _117  and  _120
REMARK   59  A    between atoms: _120  and  _121
REMARK   60  A    between atoms: _124  and  _126
REMARK   61  A    between atoms: _126  and  _127
REMARK   62  A    between atoms: _126  and  _129
REMARK   63  A    between atoms: _129  and  _130
REMARK   64  A    between atoms: _133  and  _135
REMARK   65  A    between atoms: _135  and  _136
REMARK   66  A    between atoms: _135  and  _138
REMARK   67  A    between atoms: _138  and  _139
REMARK   68  A    between atoms: _142  and  _144
REMARK   69  A    between atoms: _144  and  _145
REMARK   70  A    between atoms: _144  and  _147
REMARK   71  A    between atoms: _147  and  _148
REMARK   72  A    between atoms: _151  and  _153
REMARK   73  A    between atoms: _153  and  _154
REMARK   74  A    between atoms: _153  and  _156
REMARK   75  A    between atoms: _156  and  _157
REMARK   76  A    between atoms: _160  and  _162
REMARK   77  A    between atoms: _162  and  _163
REMARK   78  A    between atoms: _162  and  _165
REMARK   79  A    between atoms: _165  and  _166
REMARK   80  A    between atoms: _168  and  _170
REMARK   81  A    between atoms: _170  and  _171
REMARK   82  A    between atoms: _170  and  _173
REMARK   83  A    between atoms: _176  and  _178
REMARK   84  A    between atoms: _178  and  _179
REMARK   85  A    between atoms: _178  and  _181
REMARK   86  A    between atoms: _181  and  _182
REMARK   87  A    between atoms: _182  and  _183
REMARK   88  A    between atoms: _186  and  _188
REMARK   89  A    between atoms: _188  and  _189
REMARK   90  A    between atoms: _188  and  _191
REMARK   91  A    between atoms: _191  and  _192
REMARK   92  A    between atoms: _195  and  _197
REMARK   93  A    between atoms: _197  and  _198
REMARK   94  A    between atoms: _197  and  _200
REMARK   95  A    between atoms: _200  and  _201
REMARK   96  A    between atoms: _204  and  _206
REMARK   97  A    between atoms: _206  and  _207
REMARK   98  A    between atoms: _206  and  _209
REMARK   99  A    between atoms: _209  and  _210
REMARK  100  A    between atoms: _215  and  _217
REMARK  101  A    between atoms: _217  and  _218
REMARK  102  A    between atoms: _217  and  _220
REMARK  103  A    between atoms: _220  and  _221
REMARK  104  A    between atoms: _226  and  _228
REMARK  105  A    between atoms: _228  and  _229
REMARK  106  A    between atoms: _228  and  _231
REMARK  107  A    between atoms: _231  and  _232
REMARK  108  A    between atoms: _235  and  _237
REMARK  109  A    between atoms: _237  and  _238
REMARK  110  A    between atoms: _237  and  _240
REMARK  111  A    between atoms: _240  and  _241
REMARK  112  A    between atoms: _243  and  _245
REMARK  113  A    between atoms: _245  and  _246
REMARK  114  A    between atoms: _245  and  _248
REMARK  115  A    between atoms: _248  and  _249
REMARK  116  A    between atoms: _255  and  _257
REMARK  117  A    between atoms: _257  and  _258
REMARK  118  A    between atoms: _257  and  _260
REMARK  119  A    between atoms: _260  and  _261
REMARK  120  A    between atoms: _271  and  _273
REMARK  121  A    between atoms: _273  and  _274
REMARK  122  A    between atoms: _273  and  _276
REMARK  123  A    between atoms: _276  and  _277
REMARK  124  A    between atoms: _281  and  ZN_291
REMARK  125  A    between atoms: _282  and  _284
REMARK  126  A    between atoms: _284  and  _285
REMARK  127  A    between atoms: _284  and  _287
REMARK  128  A    between atoms: _287  and  _288
REMARK                            x       y       z     vdW  Elec       q    Type
REMARK                         _______ _______ _______ _____ _____    ______ ____
ROOT
ATOM      1  O   HOH     1     -16.845 -14.037   7.341  0.00  0.00    +0.000 OA
ENDROOT
TORSDOF 0
REMARK  Name = ../refined-set-2016/3pb8/3pb8_pocket.pdb
REMARK  128 active torsions:
REMARK  status: ('A' for Active; 'I' for Inactive)
REMARK    1  A    between atoms: _1  and  _3
REMARK    2  A    between atoms: _3  and  _4
REMARK    3  A    between atoms: _3  and  _6
REMARK    4  A    between atoms: _6  and  _7
REMARK    5  A    between atoms: _12  and  _14
REMARK    6  A    between atoms: _14  and  _15
REMARK    7  A    between atoms: _14  and  _17
REMARK    8  A    between atoms: _17  and  _18
REMARK    9  A    between atoms: _21  and  _23
REMARK   10  A    between atoms: _23  and  _24
REMARK   11  A    between atoms: _23  and  _26
REMARK   12  A    between atoms: _26  and  _27
REMARK   13  A    between atoms: _27  and  _28
REMARK   14  A    between atoms: _28  and  _29
REMARK   15  A    between atoms: _29  and  _30
REMARK   16  A    between atoms: _34  and  _36
REMARK   17  A    between atoms: _36  and  _37
REMARK   18  A    between atoms: _36  and  _39
REMARK   19  A    between atoms: _39  and  _40
REMARK   20  A    between atoms: _46  and  _48
REMARK   21  A    between atoms: _48  and  _49
REMARK   22  A    between atoms: _48  and  _51
REMARK   23  A    between atoms: _51  and  _52
REMARK   24  A    between atoms: _55  and  _57
REMARK   25  A    between atoms: _57  and  _58
REMARK   26  A    between atoms: _57  and  _60
REMARK   27  A    between atoms: _60  and  _61
REMARK   28  A    between atoms: _61  and  _63
REMARK   29  A    between atoms: _63  and  ZN_291
REMARK   30  A    between atoms: _64  and  _66
REMARK   31  A    between atoms: _66  and  _67
REMARK   32  A    between atoms: _66  and  _69
REMARK   33  A    between atoms: _69  and  _70
REMARK   34  A    between atoms: _72  and  _74
REMARK   35  A    between atoms: _74  and  _75
REMARK   36  A    between atoms: _74  and  _77
REMARK   37  A    between atoms: _77  and  _78
REMARK   38  A    between atoms: _78  and  _79
REMARK   39  A    between atoms: _82  and  _84
REMARK   40  A    between atoms: _84  and  _85
REMARK   41  A    between atoms: _84  and  _87
REMARK   42  A    between atoms: _87  and  _88
REMARK   43  A    between atoms: _88  and  _89
REMARK   44  A    between atoms: _89  and  _91
REMARK   45  A    between atoms: _91  and  ZN_291
REMARK   46  A    between atoms: _92  and  _94
REMARK   47  A    between atoms: _94  and  _95
REMARK   48  A    between atoms: _98  and  _100
REMARK   49  A    between atoms: _100  and  _101
REMARK   50  A    between atoms: _100  and  _103
REMARK   51  A    between atoms: _103  and  _104
REMARK   52  A    between atoms: _106  and  _108
REMARK   53  A    between atoms: _108  and  _109
REMARK   54  A    between atoms: _108  and  _111
REMARK   55  A    between atoms: _111  and  _112
REMARK   56  A    between atoms: _115  and  _117
REMARK   57  A    between atoms: _117  and  _118
REMARK   58  A    between atoms: _117  and  _120
REMARK   59  A    between atoms: _120  and  _121
REMARK   60  A    between atoms: _124  and  _126
REMARK   61  A    between atoms: _126  and  _127
REMARK   62  A    between atoms: _126  and  _129
REMARK   63  A    between atoms: _129  and  _130
REMARK   64  A    between atoms: _133  and  _135
REMARK   65  A    between atoms: _135  and  _136
REMARK   66  A    between atoms: _135  and  _138
REMARK   67  A    between atoms: _138  and  _139
REMARK   68  A    between atoms: _142  and  _144
REMARK   69  A    between atoms: _144  and  _145
REMARK   70  A    between atoms: _144  and  _147
REMARK   71  A    between atoms: _147  and  _148
REMARK   72  A    between atoms: _151  and  _153
REMARK   73  A    between atoms: _153  and  _154
REMARK   74  A    between atoms: _153  and  _156
REMARK   75  A    between atoms: _156  and  _157
REMARK   76  A    between atoms: _160  and  _162
REMARK   77  A    between atoms: _162  and  _163
REMARK   78  A    between atoms: _162  and  _165
REMARK   79  A    between atoms: _165  and  _166
REMARK   80  A    between atoms: _168  and  _170
REMARK   81  A    between atoms: _170  and  _171
REMARK   82  A    between atoms: _170  and  _173
REMARK   83  A    between atoms: _176  and  _178
REMARK   84  A    between atoms: _178  and  _179
REMARK   85  A    between atoms: _178  and  _181
REMARK   86  A    between atoms: _181  and  _182
REMARK   87  A    between atoms: _182  and  _183
REMARK   88  A    between atoms: _186  and  _188
REMARK   89  A    between atoms: _188  and  _189
REMARK   90  A    between atoms: _188  and  _191
REMARK   91  A    between atoms: _191  and  _192
REMARK   92  A    between atoms: _195  and  _197
REMARK   93  A    between atoms: _197  and  _198
REMARK   94  A    between atoms: _197  and  _200
REMARK   95  A    between atoms: _200  and  _201
REMARK   96  A    between atoms: _204  and  _206
REMARK   97  A    between atoms: _206  and  _207
REMARK   98  A    between atoms: _206  and  _209
REMARK   99  A    between atoms: _209  and  _210
REMARK  100  A    between atoms: _215  and  _217
REMARK  101  A    between atoms: _217  and  _218
REMARK  102  A    between atoms: _217  and  _220
REMARK  103  A    between atoms: _220  and  _221
REMARK  104  A    between atoms: _226  and  _228
REMARK  105  A    between atoms: _228  and  _229
REMARK  106  A    between atoms: _228  and  _231
REMARK  107  A    between atoms: _231  and  _232
REMARK  108  A    between atoms: _235  and  _237
REMARK  109  A    between atoms: _237  and  _238
REMARK  110  A    between atoms: _237  and  _240
REMARK  111  A    between atoms: _240  and  _241
REMARK  112  A    between atoms: _243  and  _245
REMARK  113  A    between atoms: _245  and  _246
REMARK  114  A    between atoms: _245  and  _248
REMARK  115  A    between atoms: _248  and  _249
REMARK  116  A    between atoms: _255  and  _257
REMARK  117  A    between atoms: _257  and  _258
REMARK  118  A    between atoms: _257  and  _260
REMARK  119  A    between atoms: _260  and  _261
REMARK  120  A    between atoms: _271  and  _273
REMARK  121  A    between atoms: _273  and  _274
REMARK  122  A    between atoms: _273  and  _276
REMARK  123  A    between atoms: _276  and  _277
REMARK  124  A    between atoms: _281  and  ZN_291
REMARK  125  A    between atoms: _282  and  _284
REMARK  126  A    between atoms: _284  and  _285
REMARK  127  A    between atoms: _284  and  _287
REMARK  128  A    between atoms: _287  and  _288
REMARK                            x       y       z     vdW  Elec       q    Type
REMARK                         _______ _______ _______ _____ _____    ______ ____
ROOT
ATOM      1  O   HOH     1     -22.471 -13.818   8.726  0.00  0.00    +0.000 OA
ENDROOT
TORSDOF 0
REMARK  Name = ../refined-set-2016/3pb8/3pb8_pocket.pdb
REMARK  128 active torsions:
REMARK  status: ('A' for Active; 'I' for Inactive)
REMARK    1  A    between atoms: _1  and  _3
REMARK    2  A    between atoms: _3  and  _4
REMARK    3  A    between atoms: _3  and  _6
REMARK    4  A    between atoms: _6  and  _7
REMARK    5  A    between atoms: _12  and  _14
REMARK    6  A    between atoms: _14  and  _15
REMARK    7  A    between atoms: _14  and  _17
REMARK    8  A    between atoms: _17  and  _18
REMARK    9  A    between atoms: _21  and  _23
REMARK   10  A    between atoms: _23  and  _24
REMARK   11  A    between atoms: _23  and  _26
REMARK   12  A    between atoms: _26  and  _27
REMARK   13  A    between atoms: _27  and  _28
REMARK   14  A    between atoms: _28  and  _29
REMARK   15  A    between atoms: _29  and  _30
REMARK   16  A    between atoms: _34  and  _36
REMARK   17  A    between atoms: _36  and  _37
REMARK   18  A    between atoms: _36  and  _39
REMARK   19  A    between atoms: _39  and  _40
REMARK   20  A    between atoms: _46  and  _48
REMARK   21  A    between atoms: _48  and  _49
REMARK   22  A    between atoms: _48  and  _51
REMARK   23  A    between atoms: _51  and  _52
REMARK   24  A    between atoms: _55  and  _57
REMARK   25  A    between atoms: _57  and  _58
REMARK   26  A    between atoms: _57  and  _60
REMARK   27  A    between atoms: _60  and  _61
REMARK   28  A    between atoms: _61  and  _63
REMARK   29  A    between atoms: _63  and  ZN_291
REMARK   30  A    between atoms: _64  and  _66
REMARK   31  A    between atoms: _66  and  _67
REMARK   32  A    between atoms: _66  and  _69
REMARK   33  A    between atoms: _69  and  _70
REMARK   34  A    between atoms: _72  and  _74
REMARK   35  A    between atoms: _74  and  _75
REMARK   36  A    between atoms: _74  and  _77
REMARK   37  A    between atoms: _77  and  _78
REMARK   38  A    between atoms: _78  and  _79
REMARK   39  A    between atoms: _82  and  _84
REMARK   40  A    between atoms: _84  and  _85
REMARK   41  A    between atoms: _84  and  _87
REMARK   42  A    between atoms: _87  and  _88
REMARK   43  A    between atoms: _88  and  _89
REMARK   44  A    between atoms: _89  and  _91
REMARK   45  A    between atoms: _91  and  ZN_291
REMARK   46  A    between atoms: _92  and  _94
REMARK   47  A    between atoms: _94  and  _95
REMARK   48  A    between atoms: _98  and  _100
REMARK   49  A    between atoms: _100  and  _101
REMARK   50  A    between atoms: _100  and  _103
REMARK   51  A    between atoms: _103  and  _104
REMARK   52  A    between atoms: _106  and  _108
REMARK   53  A    between atoms: _108  and  _109
REMARK   54  A    between atoms: _108  and  _111
REMARK   55  A    between atoms: _111  and  _112
REMARK   56  A    between atoms: _115  and  _117
REMARK   57  A    between atoms: _117  and  _118
REMARK   58  A    between atoms: _117  and  _120
REMARK   59  A    between atoms: _120  and  _121
REMARK   60  A    between atoms: _124  and  _126
REMARK   61  A    between atoms: _126  and  _127
REMARK   62  A    between atoms: _126  and  _129
REMARK   63  A    between atoms: _129  and  _130
REMARK   64  A    between atoms: _133  and  _135
REMARK   65  A    between atoms: _135  and  _136
REMARK   66  A    between atoms: _135  and  _138
REMARK   67  A    between atoms: _138  and  _139
REMARK   68  A    between atoms: _142  and  _144
REMARK   69  A    between atoms: _144  and  _145
REMARK   70  A    between atoms: _144  and  _147
REMARK   71  A    between atoms: _147  and  _148
REMARK   72  A    between atoms: _151  and  _153
REMARK   73  A    between atoms: _153  and  _154
REMARK   74  A    between atoms: _153  and  _156
REMARK   75  A    between atoms: _156  and  _157
REMARK   76  A    between atoms: _160  and  _162
REMARK   77  A    between atoms: _162  and  _163
REMARK   78  A    between atoms: _162  and  _165
REMARK   79  A    between atoms: _165  and  _166
REMARK   80  A    between atoms: _168  and  _170
REMARK   81  A    between atoms: _170  and  _171
REMARK   82  A    between atoms: _170  and  _173
REMARK   83  A    between atoms: _176  and  _178
REMARK   84  A    between atoms: _178  and  _179
REMARK   85  A    between atoms: _178  and  _181
REMARK   86  A    between atoms: _181  and  _182
REMARK   87  A    between atoms: _182  and  _183
REMARK   88  A    between atoms: _186  and  _188
REMARK   89  A    between atoms: _188  and  _189
REMARK   90  A    between atoms: _188  and  _191
REMARK   91  A    between atoms: _191  and  _192
REMARK   92  A    between atoms: _195  and  _197
REMARK   93  A    between atoms: _197  and  _198
REMARK   94  A    between atoms: _197  and  _200
REMARK   95  A    between atoms: _200  and  _201
REMARK   96  A    between atoms: _204  and  _206
REMARK   97  A    between atoms: _206  and  _207
REMARK   98  A    between atoms: _206  and  _209
REMARK   99  A    between atoms: _209  and  _210
REMARK  100  A    between atoms: _215  and  _217
REMARK  101  A    between atoms: _217  and  _218
REMARK  102  A    between atoms: _217  and  _220
REMARK  103  A    between atoms: _220  and  _221
REMARK  104  A    between atoms: _226  and  _228
REMARK  105  A    between atoms: _228  and  _229
REMARK  106  A    between atoms: _228  and  _231
REMARK  107  A    between atoms: _231  and  _232
REMARK  108  A    between atoms: _235  and  _237
REMARK  109  A    between atoms: _237  and  _238
REMARK  110  A    between atoms: _237  and  _240
REMARK  111  A    between atoms: _240  and  _241
REMARK  112  A    between atoms: _243  and  _245
REMARK  113  A    between atoms: _245  and  _246
REMARK  114  A    between atoms: _245  and  _248
REMARK  115  A    between atoms: _248  and  _249
REMARK  116  A    between atoms: _255  and  _257
REMARK  117  A    between atoms: _257  and  _258
REMARK  118  A    between atoms: _257  and  _260
REMARK  119  A    between atoms: _260  and  _261
REMARK  120  A    between atoms: _271  and  _273
REMARK  121  A    between atoms: _273  and  _274
REMARK  122  A    between atoms: _273  and  _276
REMARK  123  A    between atoms: _276  and  _277
REMARK  124  A    between atoms: _281  and  ZN_291
REMARK  125  A    between atoms: _282  and  _284
REMARK  126  A    between atoms: _284  and  _285
REMARK  127  A    between atoms: _284  and  _287
REMARK  128  A    between atoms: _287  and  _288
REMARK                            x       y       z     vdW  Elec       q    Type
REMARK                         _______ _______ _______ _____ _____    ______ ____
ROOT
ATOM      1  O   HOH     1     -14.053  -8.138  13.132  0.00  0.00    +0.000 OA
ENDROOT
TORSDOF 0
REMARK  Name = ../refined-set-2016/3pb8/3pb8_pocket.pdb
REMARK  128 active torsions:
REMARK  status: ('A' for Active; 'I' for Inactive)
REMARK    1  A    between atoms: _1  and  _3
REMARK    2  A    between atoms: _3  and  _4
REMARK    3  A    between atoms: _3  and  _6
REMARK    4  A    between atoms: _6  and  _7
REMARK    5  A    between atoms: _12  and  _14
REMARK    6  A    between atoms: _14  and  _15
REMARK    7  A    between atoms: _14  and  _17
REMARK    8  A    between atoms: _17  and  _18
REMARK    9  A    between atoms: _21  and  _23
REMARK   10  A    between atoms: _23  and  _24
REMARK   11  A    between atoms: _23  and  _26
REMARK   12  A    between atoms: _26  and  _27
REMARK   13  A    between atoms: _27  and  _28
REMARK   14  A    between atoms: _28  and  _29
REMARK   15  A    between atoms: _29  and  _30
REMARK   16  A    between atoms: _34  and  _36
REMARK   17  A    between atoms: _36  and  _37
REMARK   18  A    between atoms: _36  and  _39
REMARK   19  A    between atoms: _39  and  _40
REMARK   20  A    between atoms: _46  and  _48
REMARK   21  A    between atoms: _48  and  _49
REMARK   22  A    between atoms: _48  and  _51
REMARK   23  A    between atoms: _51  and  _52
REMARK   24  A    between atoms: _55  and  _57
REMARK   25  A    between atoms: _57  and  _58
REMARK   26  A    between atoms: _57  and  _60
REMARK   27  A    between atoms: _60  and  _61
REMARK   28  A    between atoms: _61  and  _63
REMARK   29  A    between atoms: _63  and  ZN_291
REMARK   30  A    between atoms: _64  and  _66
REMARK   31  A    between atoms: _66  and  _67
REMARK   32  A    between atoms: _66  and  _69
REMARK   33  A    between atoms: _69  and  _70
REMARK   34  A    between atoms: _72  and  _74
REMARK   35  A    between atoms: _74  and  _75
REMARK   36  A    between atoms: _74  and  _77
REMARK   37  A    between atoms: _77  and  _78
REMARK   38  A    between atoms: _78  and  _79
REMARK   39  A    between atoms: _82  and  _84
REMARK   40  A    between atoms: _84  and  _85
REMARK   41  A    between atoms: _84  and  _87
REMARK   42  A    between atoms: _87  and  _88
REMARK   43  A    between atoms: _88  and  _89
REMARK   44  A    between atoms: _89  and  _91
REMARK   45  A    between atoms: _91  and  ZN_291
REMARK   46  A    between atoms: _92  and  _94
REMARK   47  A    between atoms: _94  and  _95
REMARK   48  A    between atoms: _98  and  _100
REMARK   49  A    between atoms: _100  and  _101
REMARK   50  A    between atoms: _100  and  _103
REMARK   51  A    between atoms: _103  and  _104
REMARK   52  A    between atoms: _106  and  _108
REMARK   53  A    between atoms: _108  and  _109
REMARK   54  A    between atoms: _108  and  _111
REMARK   55  A    between atoms: _111  and  _112
REMARK   56  A    between atoms: _115  and  _117
REMARK   57  A    between atoms: _117  and  _118
REMARK   58  A    between atoms: _117  and  _120
REMARK   59  A    between atoms: _120  and  _121
REMARK   60  A    between atoms: _124  and  _126
REMARK   61  A    between atoms: _126  and  _127
REMARK   62  A    between atoms: _126  and  _129
REMARK   63  A    between atoms: _129  and  _130
REMARK   64  A    between atoms: _133  and  _135
REMARK   65  A    between atoms: _135  and  _136
REMARK   66  A    between atoms: _135  and  _138
REMARK   67  A    between atoms: _138  and  _139
REMARK   68  A    between atoms: _142  and  _144
REMARK   69  A    between atoms: _144  and  _145
REMARK   70  A    between atoms: _144  and  _147
REMARK   71  A    between atoms: _147  and  _148
REMARK   72  A    between atoms: _151  and  _153
REMARK   73  A    between atoms: _153  and  _154
REMARK   74  A    between atoms: _153  and  _156
REMARK   75  A    between atoms: _156  and  _157
REMARK   76  A    between atoms: _160  and  _162
REMARK   77  A    between atoms: _162  and  _163
REMARK   78  A    between atoms: _162  and  _165
REMARK   79  A    between atoms: _165  and  _166
REMARK   80  A    between atoms: _168  and  _170
REMARK   81  A    between atoms: _170  and  _171
REMARK   82  A    between atoms: _170  and  _173
REMARK   83  A    between atoms: _176  and  _178
REMARK   84  A    between atoms: _178  and  _179
REMARK   85  A    between atoms: _178  and  _181
REMARK   86  A    between atoms: _181  and  _182
REMARK   87  A    between atoms: _182  and  _183
REMARK   88  A    between atoms: _186  and  _188
REMARK   89  A    between atoms: _188  and  _189
REMARK   90  A    between atoms: _188  and  _191
REMARK   91  A    between atoms: _191  and  _192
REMARK   92  A    between atoms: _195  and  _197
REMARK   93  A    between atoms: _197  and  _198
REMARK   94  A    between atoms: _197  and  _200
REMARK   95  A    between atoms: _200  and  _201
REMARK   96  A    between atoms: _204  and  _206
REMARK   97  A    between atoms: _206  and  _207
REMARK   98  A    between atoms: _206  and  _209
REMARK   99  A    between atoms: _209  and  _210
REMARK  100  A    between atoms: _215  and  _217
REMARK  101  A    between atoms: _217  and  _218
REMARK  102  A    between atoms: _217  and  _220
REMARK  103  A    between atoms: _220  and  _221
REMARK  104  A    between atoms: _226  and  _228
REMARK  105  A    between atoms: _228  and  _229
REMARK  106  A    between atoms: _228  and  _231
REMARK  107  A    between atoms: _231  and  _232
REMARK  108  A    between atoms: _235  and  _237
REMARK  109  A    between atoms: _237  and  _238
REMARK  110  A    between atoms: _237  and  _240
REMARK  111  A    between atoms: _240  and  _241
REMARK  112  A    between atoms: _243  and  _245
REMARK  113  A    between atoms: _245  and  _246
REMARK  114  A    between atoms: _245  and  _248
REMARK  115  A    between atoms: _248  and  _249
REMARK  116  A    between atoms: _255  and  _257
REMARK  117  A    between atoms: _257  and  _258
REMARK  118  A    between atoms: _257  and  _260
REMARK  119  A    between atoms: _260  and  _261
REMARK  120  A    between atoms: _271  and  _273
REMARK  121  A    between atoms: _273  and  _274
REMARK  122  A    between atoms: _273  and  _276
REMARK  123  A    between atoms: _276  and  _277
REMARK  124  A    between atoms: _281  and  ZN_291
REMARK  125  A    between atoms: _282  and  _284
REMARK  126  A    between atoms: _284  and  _285
REMARK  127  A    between atoms: _284  and  _287
REMARK  128  A    between atoms: _287  and  _288
REMARK                            x       y       z     vdW  Elec       q    Type
REMARK                         _______ _______ _______ _____ _____    ______ ____
ROOT
ATOM      1  O   HOH     1     -15.383  -6.852  11.125  0.00  0.00    +0.000 OA
ENDROOT
TORSDOF 0
REMARK  Name = ../refined-set-2016/3pb8/3pb8_pocket.pdb
REMARK  128 active torsions:
REMARK  status: ('A' for Active; 'I' for Inactive)
REMARK    1  A    between atoms: _1  and  _3
REMARK    2  A    between atoms: _3  and  _4
REMARK    3  A    between atoms: _3  and  _6
REMARK    4  A    between atoms: _6  and  _7
REMARK    5  A    between atoms: _12  and  _14
REMARK    6  A    between atoms: _14  and  _15
REMARK    7  A    between atoms: _14  and  _17
REMARK    8  A    between atoms: _17  and  _18
REMARK    9  A    between atoms: _21  and  _23
REMARK   10  A    between atoms: _23  and  _24
REMARK   11  A    between atoms: _23  and  _26
REMARK   12  A    between atoms: _26  and  _27
REMARK   13  A    between atoms: _27  and  _28
REMARK   14  A    between atoms: _28  and  _29
REMARK   15  A    between atoms: _29  and  _30
REMARK   16  A    between atoms: _34  and  _36
REMARK   17  A    between atoms: _36  and  _37
REMARK   18  A    between atoms: _36  and  _39
REMARK   19  A    between atoms: _39  and  _40
REMARK   20  A    between atoms: _46  and  _48
REMARK   21  A    between atoms: _48  and  _49
REMARK   22  A    between atoms: _48  and  _51
REMARK   23  A    between atoms: _51  and  _52
REMARK   24  A    between atoms: _55  and  _57
REMARK   25  A    between atoms: _57  and  _58
REMARK   26  A    between atoms: _57  and  _60
REMARK   27  A    between atoms: _60  and  _61
REMARK   28  A    between atoms: _61  and  _63
REMARK   29  A    between atoms: _63  and  ZN_291
REMARK   30  A    between atoms: _64  and  _66
REMARK   31  A    between atoms: _66  and  _67
REMARK   32  A    between atoms: _66  and  _69
REMARK   33  A    between atoms: _69  and  _70
REMARK   34  A    between atoms: _72  and  _74
REMARK   35  A    between atoms: _74  and  _75
REMARK   36  A    between atoms: _74  and  _77
REMARK   37  A    between atoms: _77  and  _78
REMARK   38  A    between atoms: _78  and  _79
REMARK   39  A    between atoms: _82  and  _84
REMARK   40  A    between atoms: _84  and  _85
REMARK   41  A    between atoms: _84  and  _87
REMARK   42  A    between atoms: _87  and  _88
REMARK   43  A    between atoms: _88  and  _89
REMARK   44  A    between atoms: _89  and  _91
REMARK   45  A    between atoms: _91  and  ZN_291
REMARK   46  A    between atoms: _92  and  _94
REMARK   47  A    between atoms: _94  and  _95
REMARK   48  A    between atoms: _98  and  _100
REMARK   49  A    between atoms: _100  and  _101
REMARK   50  A    between atoms: _100  and  _103
REMARK   51  A    between atoms: _103  and  _104
REMARK   52  A    between atoms: _106  and  _108
REMARK   53  A    between atoms: _108  and  _109
REMARK   54  A    between atoms: _108  and  _111
REMARK   55  A    between atoms: _111  and  _112
REMARK   56  A    between atoms: _115  and  _117
REMARK   57  A    between atoms: _117  and  _118
REMARK   58  A    between atoms: _117  and  _120
REMARK   59  A    between atoms: _120  and  _121
REMARK   60  A    between atoms: _124  and  _126
REMARK   61  A    between atoms: _126  and  _127
REMARK   62  A    between atoms: _126  and  _129
REMARK   63  A    between atoms: _129  and  _130
REMARK   64  A    between atoms: _133  and  _135
REMARK   65  A    between atoms: _135  and  _136
REMARK   66  A    between atoms: _135  and  _138
REMARK   67  A    between atoms: _138  and  _139
REMARK   68  A    between atoms: _142  and  _144
REMARK   69  A    between atoms: _144  and  _145
REMARK   70  A    between atoms: _144  and  _147
REMARK   71  A    between atoms: _147  and  _148
REMARK   72  A    between atoms: _151  and  _153
REMARK   73  A    between atoms: _153  and  _154
REMARK   74  A    between atoms: _153  and  _156
REMARK   75  A    between atoms: _156  and  _157
REMARK   76  A    between atoms: _160  and  _162
REMARK   77  A    between atoms: _162  and  _163
REMARK   78  A    between atoms: _162  and  _165
REMARK   79  A    between atoms: _165  and  _166
REMARK   80  A    between atoms: _168  and  _170
REMARK   81  A    between atoms: _170  and  _171
REMARK   82  A    between atoms: _170  and  _173
REMARK   83  A    between atoms: _176  and  _178
REMARK   84  A    between atoms: _178  and  _179
REMARK   85  A    between atoms: _178  and  _181
REMARK   86  A    between atoms: _181  and  _182
REMARK   87  A    between atoms: _182  and  _183
REMARK   88  A    between atoms: _186  and  _188
REMARK   89  A    between atoms: _188  and  _189
REMARK   90  A    between atoms: _188  and  _191
REMARK   91  A    between atoms: _191  and  _192
REMARK   92  A    between atoms: _195  and  _197
REMARK   93  A    between atoms: _197  and  _198
REMARK   94  A    between atoms: _197  and  _200
REMARK   95  A    between atoms: _200  and  _201
REMARK   96  A    between atoms: _204  and  _206
REMARK   97  A    between atoms: _206  and  _207
REMARK   98  A    between atoms: _206  and  _209
REMARK   99  A    between atoms: _209  and  _210
REMARK  100  A    between atoms: _215  and  _217
REMARK  101  A    between atoms: _217  and  _218
REMARK  102  A    between atoms: _217  and  _220
REMARK  103  A    between atoms: _220  and  _221
REMARK  104  A    between atoms: _226  and  _228
REMARK  105  A    between atoms: _228  and  _229
REMARK  106  A    between atoms: _228  and  _231
REMARK  107  A    between atoms: _231  and  _232
REMARK  108  A    between atoms: _235  and  _237
REMARK  109  A    between atoms: _237  and  _238
REMARK  110  A    between atoms: _237  and  _240
REMARK  111  A    between atoms: _240  and  _241
REMARK  112  A    between atoms: _243  and  _245
REMARK  113  A    between atoms: _245  and  _246
REMARK  114  A    between atoms: _245  and  _248
REMARK  115  A    between atoms: _248  and  _249
REMARK  116  A    between atoms: _255  and  _257
REMARK  117  A    between atoms: _257  and  _258
REMARK  118  A    between atoms: _257  and  _260
REMARK  119  A    between atoms: _260  and  _261
REMARK  120  A    between atoms: _271  and  _273
REMARK  121  A    between atoms: _273  and  _274
REMARK  122  A    between atoms: _273  and  _276
REMARK  123  A    between atoms: _276  and  _277
REMARK  124  A    between atoms: _281  and  ZN_291
REMARK  125  A    between atoms: _282  and  _284
REMARK  126  A    between atoms: _284  and  _285
REMARK  127  A    between atoms: _284  and  _287
REMARK  128  A    between atoms: _287  and  _288
REMARK                            x       y       z     vdW  Elec       q    Type
REMARK                         _______ _______ _______ _____ _____    ______ ____
ROOT
ATOM      1  O   HOH     1     -24.077 -11.691  10.045  0.00  0.00    +0.000 OA
ENDROOT
TORSDOF 0
REMARK  Name = ../refined-set-2016/3pb8/3pb8_pocket.pdb
REMARK  128 active torsions:
REMARK  status: ('A' for Active; 'I' for Inactive)
REMARK    1  A    between atoms: _1  and  _3
REMARK    2  A    between atoms: _3  and  _4
REMARK    3  A    between atoms: _3  and  _6
REMARK    4  A    between atoms: _6  and  _7
REMARK    5  A    between atoms: _12  and  _14
REMARK    6  A    between atoms: _14  and  _15
REMARK    7  A    between atoms: _14  and  _17
REMARK    8  A    between atoms: _17  and  _18
REMARK    9  A    between atoms: _21  and  _23
REMARK   10  A    between atoms: _23  and  _24
REMARK   11  A    between atoms: _23  and  _26
REMARK   12  A    between atoms: _26  and  _27
REMARK   13  A    between atoms: _27  and  _28
REMARK   14  A    between atoms: _28  and  _29
REMARK   15  A    between atoms: _29  and  _30
REMARK   16  A    between atoms: _34  and  _36
REMARK   17  A    between atoms: _36  and  _37
REMARK   18  A    between atoms: _36  and  _39
REMARK   19  A    between atoms: _39  and  _40
REMARK   20  A    between atoms: _46  and  _48
REMARK   21  A    between atoms: _48  and  _49
REMARK   22  A    between atoms: _48  and  _51
REMARK   23  A    between atoms: _51  and  _52
REMARK   24  A    between atoms: _55  and  _57
REMARK   25  A    between atoms: _57  and  _58
REMARK   26  A    between atoms: _57  and  _60
REMARK   27  A    between atoms: _60  and  _61
REMARK   28  A    between atoms: _61  and  _63
REMARK   29  A    between atoms: _63  and  ZN_291
REMARK   30  A    between atoms: _64  and  _66
REMARK   31  A    between atoms: _66  and  _67
REMARK   32  A    between atoms: _66  and  _69
REMARK   33  A    between atoms: _69  and  _70
REMARK   34  A    between atoms: _72  and  _74
REMARK   35  A    between atoms: _74  and  _75
REMARK   36  A    between atoms: _74  and  _77
REMARK   37  A    between atoms: _77  and  _78
REMARK   38  A    between atoms: _78  and  _79
REMARK   39  A    between atoms: _82  and  _84
REMARK   40  A    between atoms: _84  and  _85
REMARK   41  A    between atoms: _84  and  _87
REMARK   42  A    between atoms: _87  and  _88
REMARK   43  A    between atoms: _88  and  _89
REMARK   44  A    between atoms: _89  and  _91
REMARK   45  A    between atoms: _91  and  ZN_291
REMARK   46  A    between atoms: _92  and  _94
REMARK   47  A    between atoms: _94  and  _95
REMARK   48  A    between atoms: _98  and  _100
REMARK   49  A    between atoms: _100  and  _101
REMARK   50  A    between atoms: _100  and  _103
REMARK   51  A    between atoms: _103  and  _104
REMARK   52  A    between atoms: _106  and  _108
REMARK   53  A    between atoms: _108  and  _109
REMARK   54  A    between atoms: _108  and  _111
REMARK   55  A    between atoms: _111  and  _112
REMARK   56  A    between atoms: _115  and  _117
REMARK   57  A    between atoms: _117  and  _118
REMARK   58  A    between atoms: _117  and  _120
REMARK   59  A    between atoms: _120  and  _121
REMARK   60  A    between atoms: _124  and  _126
REMARK   61  A    between atoms: _126  and  _127
REMARK   62  A    between atoms: _126  and  _129
REMARK   63  A    between atoms: _129  and  _130
REMARK   64  A    between atoms: _133  and  _135
REMARK   65  A    between atoms: _135  and  _136
REMARK   66  A    between atoms: _135  and  _138
REMARK   67  A    between atoms: _138  and  _139
REMARK   68  A    between atoms: _142  and  _144
REMARK   69  A    between atoms: _144  and  _145
REMARK   70  A    between atoms: _144  and  _147
REMARK   71  A    between atoms: _147  and  _148
REMARK   72  A    between atoms: _151  and  _153
REMARK   73  A    between atoms: _153  and  _154
REMARK   74  A    between atoms: _153  and  _156
REMARK   75  A    between atoms: _156  and  _157
REMARK   76  A    between atoms: _160  and  _162
REMARK   77  A    between atoms: _162  and  _163
REMARK   78  A    between atoms: _162  and  _165
REMARK   79  A    between atoms: _165  and  _166
REMARK   80  A    between atoms: _168  and  _170
REMARK   81  A    between atoms: _170  and  _171
REMARK   82  A    between atoms: _170  and  _173
REMARK   83  A    between atoms: _176  and  _178
REMARK   84  A    between atoms: _178  and  _179
REMARK   85  A    between atoms: _178  and  _181
REMARK   86  A    between atoms: _181  and  _182
REMARK   87  A    between atoms: _182  and  _183
REMARK   88  A    between atoms: _186  and  _188
REMARK   89  A    between atoms: _188  and  _189
REMARK   90  A    between atoms: _188  and  _191
REMARK   91  A    between atoms: _191  and  _192
REMARK   92  A    between atoms: _195  and  _197
REMARK   93  A    between atoms: _197  and  _198
REMARK   94  A    between atoms: _197  and  _200
REMARK   95  A    between atoms: _200  and  _201
REMARK   96  A    between atoms: _204  and  _206
REMARK   97  A    between atoms: _206  and  _207
REMARK   98  A    between atoms: _206  and  _209
REMARK   99  A    between atoms: _209  and  _210
REMARK  100  A    between atoms: _215  and  _217
REMARK  101  A    between atoms: _217  and  _218
REMARK  102  A    between atoms: _217  and  _220
REMARK  103  A    between atoms: _220  and  _221
REMARK  104  A    between atoms: _226  and  _228
REMARK  105  A    between atoms: _228  and  _229
REMARK  106  A    between atoms: _228  and  _231
REMARK  107  A    between atoms: _231  and  _232
REMARK  108  A    between atoms: _235  and  _237
REMARK  109  A    between atoms: _237  and  _238
REMARK  110  A    between atoms: _237  and  _240
REMARK  111  A    between atoms: _240  and  _241
REMARK  112  A    between atoms: _243  and  _245
REMARK  113  A    between atoms: _245  and  _246
REMARK  114  A    between atoms: _245  and  _248
REMARK  115  A    between atoms: _248  and  _249
REMARK  116  A    between atoms: _255  and  _257
REMARK  117  A    between atoms: _257  and  _258
REMARK  118  A    between atoms: _257  and  _260
REMARK  119  A    between atoms: _260  and  _261
REMARK  120  A    between atoms: _271  and  _273
REMARK  121  A    between atoms: _273  and  _274
REMARK  122  A    between atoms: _273  and  _276
REMARK  123  A    between atoms: _276  and  _277
REMARK  124  A    between atoms: _281  and  ZN_291
REMARK  125  A    between atoms: _282  and  _284
REMARK  126  A    between atoms: _284  and  _285
REMARK  127  A    between atoms: _284  and  _287
REMARK  128  A    between atoms: _287  and  _288
REMARK                            x       y       z     vdW  Elec       q    Type
REMARK                         _______ _______ _______ _____ _____    ______ ____
ROOT
ATOM      1  O   HOH     1     -15.959 -18.440  12.583  0.00  0.00    +0.000 OA
ENDROOT
TORSDOF 0
REMARK  Name = ../refined-set-2016/3pb8/3pb8_pocket.pdb
REMARK  128 active torsions:
REMARK  status: ('A' for Active; 'I' for Inactive)
REMARK    1  A    between atoms: _1  and  _3
REMARK    2  A    between atoms: _3  and  _4
REMARK    3  A    between atoms: _3  and  _6
REMARK    4  A    between atoms: _6  and  _7
REMARK    5  A    between atoms: _12  and  _14
REMARK    6  A    between atoms: _14  and  _15
REMARK    7  A    between atoms: _14  and  _17
REMARK    8  A    between atoms: _17  and  _18
REMARK    9  A    between atoms: _21  and  _23
REMARK   10  A    between atoms: _23  and  _24
REMARK   11  A    between atoms: _23  and  _26
REMARK   12  A    between atoms: _26  and  _27
REMARK   13  A    between atoms: _27  and  _28
REMARK   14  A    between atoms: _28  and  _29
REMARK   15  A    between atoms: _29  and  _30
REMARK   16  A    between atoms: _34  and  _36
REMARK   17  A    between atoms: _36  and  _37
REMARK   18  A    between atoms: _36  and  _39
REMARK   19  A    between atoms: _39  and  _40
REMARK   20  A    between atoms: _46  and  _48
REMARK   21  A    between atoms: _48  and  _49
REMARK   22  A    between atoms: _48  and  _51
REMARK   23  A    between atoms: _51  and  _52
REMARK   24  A    between atoms: _55  and  _57
REMARK   25  A    between atoms: _57  and  _58
REMARK   26  A    between atoms: _57  and  _60
REMARK   27  A    between atoms: _60  and  _61
REMARK   28  A    between atoms: _61  and  _63
REMARK   29  A    between atoms: _63  and  ZN_291
REMARK   30  A    between atoms: _64  and  _66
REMARK   31  A    between atoms: _66  and  _67
REMARK   32  A    between atoms: _66  and  _69
REMARK   33  A    between atoms: _69  and  _70
REMARK   34  A    between atoms: _72  and  _74
REMARK   35  A    between atoms: _74  and  _75
REMARK   36  A    between atoms: _74  and  _77
REMARK   37  A    between atoms: _77  and  _78
REMARK   38  A    between atoms: _78  and  _79
REMARK   39  A    between atoms: _82  and  _84
REMARK   40  A    between atoms: _84  and  _85
REMARK   41  A    between atoms: _84  and  _87
REMARK   42  A    between atoms: _87  and  _88
REMARK   43  A    between atoms: _88  and  _89
REMARK   44  A    between atoms: _89  and  _91
REMARK   45  A    between atoms: _91  and  ZN_291
REMARK   46  A    between atoms: _92  and  _94
REMARK   47  A    between atoms: _94  and  _95
REMARK   48  A    between atoms: _98  and  _100
REMARK   49  A    between atoms: _100  and  _101
REMARK   50  A    between atoms: _100  and  _103
REMARK   51  A    between atoms: _103  and  _104
REMARK   52  A    between atoms: _106  and  _108
REMARK   53  A    between atoms: _108  and  _109
REMARK   54  A    between atoms: _108  and  _111
REMARK   55  A    between atoms: _111  and  _112
REMARK   56  A    between atoms: _115  and  _117
REMARK   57  A    between atoms: _117  and  _118
REMARK   58  A    between atoms: _117  and  _120
REMARK   59  A    between atoms: _120  and  _121
REMARK   60  A    between atoms: _124  and  _126
REMARK   61  A    between atoms: _126  and  _127
REMARK   62  A    between atoms: _126  and  _129
REMARK   63  A    between atoms: _129  and  _130
REMARK   64  A    between atoms: _133  and  _135
REMARK   65  A    between atoms: _135  and  _136
REMARK   66  A    between atoms: _135  and  _138
REMARK   67  A    between atoms: _138  and  _139
REMARK   68  A    between atoms: _142  and  _144
REMARK   69  A    between atoms: _144  and  _145
REMARK   70  A    between atoms: _144  and  _147
REMARK   71  A    between atoms: _147  and  _148
REMARK   72  A    between atoms: _151  and  _153
REMARK   73  A    between atoms: _153  and  _154
REMARK   74  A    between atoms: _153  and  _156
REMARK   75  A    between atoms: _156  and  _157
REMARK   76  A    between atoms: _160  and  _162
REMARK   77  A    between atoms: _162  and  _163
REMARK   78  A    between atoms: _162  and  _165
REMARK   79  A    between atoms: _165  and  _166
REMARK   80  A    between atoms: _168  and  _170
REMARK   81  A    between atoms: _170  and  _171
REMARK   82  A    between atoms: _170  and  _173
REMARK   83  A    between atoms: _176  and  _178
REMARK   84  A    between atoms: _178  and  _179
REMARK   85  A    between atoms: _178  and  _181
REMARK   86  A    between atoms: _181  and  _182
REMARK   87  A    between atoms: _182  and  _183
REMARK   88  A    between atoms: _186  and  _188
REMARK   89  A    between atoms: _188  and  _189
REMARK   90  A    between atoms: _188  and  _191
REMARK   91  A    between atoms: _191  and  _192
REMARK   92  A    between atoms: _195  and  _197
REMARK   93  A    between atoms: _197  and  _198
REMARK   94  A    between atoms: _197  and  _200
REMARK   95  A    between atoms: _200  and  _201
REMARK   96  A    between atoms: _204  and  _206
REMARK   97  A    between atoms: _206  and  _207
REMARK   98  A    between atoms: _206  and  _209
REMARK   99  A    between atoms: _209  and  _210
REMARK  100  A    between atoms: _215  and  _217
REMARK  101  A    between atoms: _217  and  _218
REMARK  102  A    between atoms: _217  and  _220
REMARK  103  A    between atoms: _220  and  _221
REMARK  104  A    between atoms: _226  and  _228
REMARK  105  A    between atoms: _228  and  _229
REMARK  106  A    between atoms: _228  and  _231
REMARK  107  A    between atoms: _231  and  _232
REMARK  108  A    between atoms: _235  and  _237
REMARK  109  A    between atoms: _237  and  _238
REMARK  110  A    between atoms: _237  and  _240
REMARK  111  A    between atoms: _240  and  _241
REMARK  112  A    between atoms: _243  and  _245
REMARK  113  A    between atoms: _245  and  _246
REMARK  114  A    between atoms: _245  and  _248
REMARK  115  A    between atoms: _248  and  _249
REMARK  116  A    between atoms: _255  and  _257
REMARK  117  A    between atoms: _257  and  _258
REMARK  118  A    between atoms: _257  and  _260
REMARK  119  A    between atoms: _260  and  _261
REMARK  120  A    between atoms: _271  and  _273
REMARK  121  A    between atoms: _273  and  _274
REMARK  122  A    between atoms: _273  and  _276
REMARK  123  A    between atoms: _276  and  _277
REMARK  124  A    between atoms: _281  and  ZN_291
REMARK  125  A    between atoms: _282  and  _284
REMARK  126  A    between atoms: _284  and  _285
REMARK  127  A    between atoms: _284  and  _287
REMARK  128  A    between atoms: _287  and  _288
REMARK                            x       y       z     vdW  Elec       q    Type
REMARK                         _______ _______ _______ _____ _____    ______ ____
ROOT
ATOM      1  O   HOH     1     -20.606 -20.202  13.524  0.00  0.00    +0.000 OA
ENDROOT
TORSDOF 0
REMARK  Name = ../refined-set-2016/3pb8/3pb8_pocket.pdb
REMARK  128 active torsions:
REMARK  status: ('A' for Active; 'I' for Inactive)
REMARK    1  A    between atoms: _1  and  _3
REMARK    2  A    between atoms: _3  and  _4
REMARK    3  A    between atoms: _3  and  _6
REMARK    4  A    between atoms: _6  and  _7
REMARK    5  A    between atoms: _12  and  _14
REMARK    6  A    between atoms: _14  and  _15
REMARK    7  A    between atoms: _14  and  _17
REMARK    8  A    between atoms: _17  and  _18
REMARK    9  A    between atoms: _21  and  _23
REMARK   10  A    between atoms: _23  and  _24
REMARK   11  A    between atoms: _23  and  _26
REMARK   12  A    between atoms: _26  and  _27
REMARK   13  A    between atoms: _27  and  _28
REMARK   14  A    between atoms: _28  and  _29
REMARK   15  A    between atoms: _29  and  _30
REMARK   16  A    between atoms: _34  and  _36
REMARK   17  A    between atoms: _36  and  _37
REMARK   18  A    between atoms: _36  and  _39
REMARK   19  A    between atoms: _39  and  _40
REMARK   20  A    between atoms: _46  and  _48
REMARK   21  A    between atoms: _48  and  _49
REMARK   22  A    between atoms: _48  and  _51
REMARK   23  A    between atoms: _51  and  _52
REMARK   24  A    between atoms: _55  and  _57
REMARK   25  A    between atoms: _57  and  _58
REMARK   26  A    between atoms: _57  and  _60
REMARK   27  A    between atoms: _60  and  _61
REMARK   28  A    between atoms: _61  and  _63
REMARK   29  A    between atoms: _63  and  ZN_291
REMARK   30  A    between atoms: _64  and  _66
REMARK   31  A    between atoms: _66  and  _67
REMARK   32  A    between atoms: _66  and  _69
REMARK   33  A    between atoms: _69  and  _70
REMARK   34  A    between atoms: _72  and  _74
REMARK   35  A    between atoms: _74  and  _75
REMARK   36  A    between atoms: _74  and  _77
REMARK   37  A    between atoms: _77  and  _78
REMARK   38  A    between atoms: _78  and  _79
REMARK   39  A    between atoms: _82  and  _84
REMARK   40  A    between atoms: _84  and  _85
REMARK   41  A    between atoms: _84  and  _87
REMARK   42  A    between atoms: _87  and  _88
REMARK   43  A    between atoms: _88  and  _89
REMARK   44  A    between atoms: _89  and  _91
REMARK   45  A    between atoms: _91  and  ZN_291
REMARK   46  A    between atoms: _92  and  _94
REMARK   47  A    between atoms: _94  and  _95
REMARK   48  A    between atoms: _98  and  _100
REMARK   49  A    between atoms: _100  and  _101
REMARK   50  A    between atoms: _100  and  _103
REMARK   51  A    between atoms: _103  and  _104
REMARK   52  A    between atoms: _106  and  _108
REMARK   53  A    between atoms: _108  and  _109
REMARK   54  A    between atoms: _108  and  _111
REMARK   55  A    between atoms: _111  and  _112
REMARK   56  A    between atoms: _115  and  _117
REMARK   57  A    between atoms: _117  and  _118
REMARK   58  A    between atoms: _117  and  _120
REMARK   59  A    between atoms: _120  and  _121
REMARK   60  A    between atoms: _124  and  _126
REMARK   61  A    between atoms: _126  and  _127
REMARK   62  A    between atoms: _126  and  _129
REMARK   63  A    between atoms: _129  and  _130
REMARK   64  A    between atoms: _133  and  _135
REMARK   65  A    between atoms: _135  and  _136
REMARK   66  A    between atoms: _135  and  _138
REMARK   67  A    between atoms: _138  and  _139
REMARK   68  A    between atoms: _142  and  _144
REMARK   69  A    between atoms: _144  and  _145
REMARK   70  A    between atoms: _144  and  _147
REMARK   71  A    between atoms: _147  and  _148
REMARK   72  A    between atoms: _151  and  _153
REMARK   73  A    between atoms: _153  and  _154
REMARK   74  A    between atoms: _153  and  _156
REMARK   75  A    between atoms: _156  and  _157
REMARK   76  A    between atoms: _160  and  _162
REMARK   77  A    between atoms: _162  and  _163
REMARK   78  A    between atoms: _162  and  _165
REMARK   79  A    between atoms: _165  and  _166
REMARK   80  A    between atoms: _168  and  _170
REMARK   81  A    between atoms: _170  and  _171
REMARK   82  A    between atoms: _170  and  _173
REMARK   83  A    between atoms: _176  and  _178
REMARK   84  A    between atoms: _178  and  _179
REMARK   85  A    between atoms: _178  and  _181
REMARK   86  A    between atoms: _181  and  _182
REMARK   87  A    between atoms: _182  and  _183
REMARK   88  A    between atoms: _186  and  _188
REMARK   89  A    between atoms: _188  and  _189
REMARK   90  A    between atoms: _188  and  _191
REMARK   91  A    between atoms: _191  and  _192
REMARK   92  A    between atoms: _195  and  _197
REMARK   93  A    between atoms: _197  and  _198
REMARK   94  A    between atoms: _197  and  _200
REMARK   95  A    between atoms: _200  and  _201
REMARK   96  A    between atoms: _204  and  _206
REMARK   97  A    between atoms: _206  and  _207
REMARK   98  A    between atoms: _206  and  _209
REMARK   99  A    between atoms: _209  and  _210
REMARK  100  A    between atoms: _215  and  _217
REMARK  101  A    between atoms: _217  and  _218
REMARK  102  A    between atoms: _217  and  _220
REMARK  103  A    between atoms: _220  and  _221
REMARK  104  A    between atoms: _226  and  _228
REMARK  105  A    between atoms: _228  and  _229
REMARK  106  A    between atoms: _228  and  _231
REMARK  107  A    between atoms: _231  and  _232
REMARK  108  A    between atoms: _235  and  _237
REMARK  109  A    between atoms: _237  and  _238
REMARK  110  A    between atoms: _237  and  _240
REMARK  111  A    between atoms: _240  and  _241
REMARK  112  A    between atoms: _243  and  _245
REMARK  113  A    between atoms: _245  and  _246
REMARK  114  A    between atoms: _245  and  _248
REMARK  115  A    between atoms: _248  and  _249
REMARK  116  A    between atoms: _255  and  _257
REMARK  117  A    between atoms: _257  and  _258
REMARK  118  A    between atoms: _257  and  _260
REMARK  119  A    between atoms: _260  and  _261
REMARK  120  A    between atoms: _271  and  _273
REMARK  121  A    between atoms: _273  and  _274
REMARK  122  A    between atoms: _273  and  _276
REMARK  123  A    between atoms: _276  and  _277
REMARK  124  A    between atoms: _281  and  ZN_291
REMARK  125  A    between atoms: _282  and  _284
REMARK  126  A    between atoms: _284  and  _285
REMARK  127  A    between atoms: _284  and  _287
REMARK  128  A    between atoms: _287  and  _288
REMARK                            x       y       z     vdW  Elec       q    Type
REMARK                         _______ _______ _______ _____ _____    ______ ____
ROOT
ATOM      1  O   HOH     1     -13.766 -16.186  15.186  0.00  0.00    +0.000 OA
ENDROOT
TORSDOF 0
REMARK  Name = ../refined-set-2016/3pb8/3pb8_pocket.pdb
REMARK  128 active torsions:
REMARK  status: ('A' for Active; 'I' for Inactive)
REMARK    1  A    between atoms: _1  and  _3
REMARK    2  A    between atoms: _3  and  _4
REMARK    3  A    between atoms: _3  and  _6
REMARK    4  A    between atoms: _6  and  _7
REMARK    5  A    between atoms: _12  and  _14
REMARK    6  A    between atoms: _14  and  _15
REMARK    7  A    between atoms: _14  and  _17
REMARK    8  A    between atoms: _17  and  _18
REMARK    9  A    between atoms: _21  and  _23
REMARK   10  A    between atoms: _23  and  _24
REMARK   11  A    between atoms: _23  and  _26
REMARK   12  A    between atoms: _26  and  _27
REMARK   13  A    between atoms: _27  and  _28
REMARK   14  A    between atoms: _28  and  _29
REMARK   15  A    between atoms: _29  and  _30
REMARK   16  A    between atoms: _34  and  _36
REMARK   17  A    between atoms: _36  and  _37
REMARK   18  A    between atoms: _36  and  _39
REMARK   19  A    between atoms: _39  and  _40
REMARK   20  A    between atoms: _46  and  _48
REMARK   21  A    between atoms: _48  and  _49
REMARK   22  A    between atoms: _48  and  _51
REMARK   23  A    between atoms: _51  and  _52
REMARK   24  A    between atoms: _55  and  _57
REMARK   25  A    between atoms: _57  and  _58
REMARK   26  A    between atoms: _57  and  _60
REMARK   27  A    between atoms: _60  and  _61
REMARK   28  A    between atoms: _61  and  _63
REMARK   29  A    between atoms: _63  and  ZN_291
REMARK   30  A    between atoms: _64  and  _66
REMARK   31  A    between atoms: _66  and  _67
REMARK   32  A    between atoms: _66  and  _69
REMARK   33  A    between atoms: _69  and  _70
REMARK   34  A    between atoms: _72  and  _74
REMARK   35  A    between atoms: _74  and  _75
REMARK   36  A    between atoms: _74  and  _77
REMARK   37  A    between atoms: _77  and  _78
REMARK   38  A    between atoms: _78  and  _79
REMARK   39  A    between atoms: _82  and  _84
REMARK   40  A    between atoms: _84  and  _85
REMARK   41  A    between atoms: _84  and  _87
REMARK   42  A    between atoms: _87  and  _88
REMARK   43  A    between atoms: _88  and  _89
REMARK   44  A    between atoms: _89  and  _91
REMARK   45  A    between atoms: _91  and  ZN_291
REMARK   46  A    between atoms: _92  and  _94
REMARK   47  A    between atoms: _94  and  _95
REMARK   48  A    between atoms: _98  and  _100
REMARK   49  A    between atoms: _100  and  _101
REMARK   50  A    between atoms: _100  and  _103
REMARK   51  A    between atoms: _103  and  _104
REMARK   52  A    between atoms: _106  and  _108
REMARK   53  A    between atoms: _108  and  _109
REMARK   54  A    between atoms: _108  and  _111
REMARK   55  A    between atoms: _111  and  _112
REMARK   56  A    between atoms: _115  and  _117
REMARK   57  A    between atoms: _117  and  _118
REMARK   58  A    between atoms: _117  and  _120
REMARK   59  A    between atoms: _120  and  _121
REMARK   60  A    between atoms: _124  and  _126
REMARK   61  A    between atoms: _126  and  _127
REMARK   62  A    between atoms: _126  and  _129
REMARK   63  A    between atoms: _129  and  _130
REMARK   64  A    between atoms: _133  and  _135
REMARK   65  A    between atoms: _135  and  _136
REMARK   66  A    between atoms: _135  and  _138
REMARK   67  A    between atoms: _138  and  _139
REMARK   68  A    between atoms: _142  and  _144
REMARK   69  A    between atoms: _144  and  _145
REMARK   70  A    between atoms: _144  and  _147
REMARK   71  A    between atoms: _147  and  _148
REMARK   72  A    between atoms: _151  and  _153
REMARK   73  A    between atoms: _153  and  _154
REMARK   74  A    between atoms: _153  and  _156
REMARK   75  A    between atoms: _156  and  _157
REMARK   76  A    between atoms: _160  and  _162
REMARK   77  A    between atoms: _162  and  _163
REMARK   78  A    between atoms: _162  and  _165
REMARK   79  A    between atoms: _165  and  _166
REMARK   80  A    between atoms: _168  and  _170
REMARK   81  A    between atoms: _170  and  _171
REMARK   82  A    between atoms: _170  and  _173
REMARK   83  A    between atoms: _176  and  _178
REMARK   84  A    between atoms: _178  and  _179
REMARK   85  A    between atoms: _178  and  _181
REMARK   86  A    between atoms: _181  and  _182
REMARK   87  A    between atoms: _182  and  _183
REMARK   88  A    between atoms: _186  and  _188
REMARK   89  A    between atoms: _188  and  _189
REMARK   90  A    between atoms: _188  and  _191
REMARK   91  A    between atoms: _191  and  _192
REMARK   92  A    between atoms: _195  and  _197
REMARK   93  A    between atoms: _197  and  _198
REMARK   94  A    between atoms: _197  and  _200
REMARK   95  A    between atoms: _200  and  _201
REMARK   96  A    between atoms: _204  and  _206
REMARK   97  A    between atoms: _206  and  _207
REMARK   98  A    between atoms: _206  and  _209
REMARK   99  A    between atoms: _209  and  _210
REMARK  100  A    between atoms: _215  and  _217
REMARK  101  A    between atoms: _217  and  _218
REMARK  102  A    between atoms: _217  and  _220
REMARK  103  A    between atoms: _220  and  _221
REMARK  104  A    between atoms: _226  and  _228
REMARK  105  A    between atoms: _228  and  _229
REMARK  106  A    between atoms: _228  and  _231
REMARK  107  A    between atoms: _231  and  _232
REMARK  108  A    between atoms: _235  and  _237
REMARK  109  A    between atoms: _237  and  _238
REMARK  110  A    between atoms: _237  and  _240
REMARK  111  A    between atoms: _240  and  _241
REMARK  112  A    between atoms: _243  and  _245
REMARK  113  A    between atoms: _245  and  _246
REMARK  114  A    between atoms: _245  and  _248
REMARK  115  A    between atoms: _248  and  _249
REMARK  116  A    between atoms: _255  and  _257
REMARK  117  A    between atoms: _257  and  _258
REMARK  118  A    between atoms: _257  and  _260
REMARK  119  A    between atoms: _260  and  _261
REMARK  120  A    between atoms: _271  and  _273
REMARK  121  A    between atoms: _273  and  _274
REMARK  122  A    between atoms: _273  and  _276
REMARK  123  A    between atoms: _276  and  _277
REMARK  124  A    between atoms: _281  and  ZN_291
REMARK  125  A    between atoms: _282  and  _284
REMARK  126  A    between atoms: _284  and  _285
REMARK  127  A    between atoms: _284  and  _287
REMARK  128  A    between atoms: _287  and  _288
REMARK                            x       y       z     vdW  Elec       q    Type
REMARK                         _______ _______ _______ _____ _____    ______ ____
ROOT
ATOM      1  O   HOH     1     -16.051 -15.176  14.221  0.00  0.00    +0.000 OA
ENDROOT
TORSDOF 0
REMARK  Name = ../refined-set-2016/3pb8/3pb8_pocket.pdb
REMARK  128 active torsions:
REMARK  status: ('A' for Active; 'I' for Inactive)
REMARK    1  A    between atoms: _1  and  _3
REMARK    2  A    between atoms: _3  and  _4
REMARK    3  A    between atoms: _3  and  _6
REMARK    4  A    between atoms: _6  and  _7
REMARK    5  A    between atoms: _12  and  _14
REMARK    6  A    between atoms: _14  and  _15
REMARK    7  A    between atoms: _14  and  _17
REMARK    8  A    between atoms: _17  and  _18
REMARK    9  A    between atoms: _21  and  _23
REMARK   10  A    between atoms: _23  and  _24
REMARK   11  A    between atoms: _23  and  _26
REMARK   12  A    between atoms: _26  and  _27
REMARK   13  A    between atoms: _27  and  _28
REMARK   14  A    between atoms: _28  and  _29
REMARK   15  A    between atoms: _29  and  _30
REMARK   16  A    between atoms: _34  and  _36
REMARK   17  A    between atoms: _36  and  _37
REMARK   18  A    between atoms: _36  and  _39
REMARK   19  A    between atoms: _39  and  _40
REMARK   20  A    between atoms: _46  and  _48
REMARK   21  A    between atoms: _48  and  _49
REMARK   22  A    between atoms: _48  and  _51
REMARK   23  A    between atoms: _51  and  _52
REMARK   24  A    between atoms: _55  and  _57
REMARK   25  A    between atoms: _57  and  _58
REMARK   26  A    between atoms: _57  and  _60
REMARK   27  A    between atoms: _60  and  _61
REMARK   28  A    between atoms: _61  and  _63
REMARK   29  A    between atoms: _63  and  ZN_291
REMARK   30  A    between atoms: _64  and  _66
REMARK   31  A    between atoms: _66  and  _67
REMARK   32  A    between atoms: _66  and  _69
REMARK   33  A    between atoms: _69  and  _70
REMARK   34  A    between atoms: _72  and  _74
REMARK   35  A    between atoms: _74  and  _75
REMARK   36  A    between atoms: _74  and  _77
REMARK   37  A    between atoms: _77  and  _78
REMARK   38  A    between atoms: _78  and  _79
REMARK   39  A    between atoms: _82  and  _84
REMARK   40  A    between atoms: _84  and  _85
REMARK   41  A    between atoms: _84  and  _87
REMARK   42  A    between atoms: _87  and  _88
REMARK   43  A    between atoms: _88  and  _89
REMARK   44  A    between atoms: _89  and  _91
REMARK   45  A    between atoms: _91  and  ZN_291
REMARK   46  A    between atoms: _92  and  _94
REMARK   47  A    between atoms: _94  and  _95
REMARK   48  A    between atoms: _98  and  _100
REMARK   49  A    between atoms: _100  and  _101
REMARK   50  A    between atoms: _100  and  _103
REMARK   51  A    between atoms: _103  and  _104
REMARK   52  A    between atoms: _106  and  _108
REMARK   53  A    between atoms: _108  and  _109
REMARK   54  A    between atoms: _108  and  _111
REMARK   55  A    between atoms: _111  and  _112
REMARK   56  A    between atoms: _115  and  _117
REMARK   57  A    between atoms: _117  and  _118
REMARK   58  A    between atoms: _117  and  _120
REMARK   59  A    between atoms: _120  and  _121
REMARK   60  A    between atoms: _124  and  _126
REMARK   61  A    between atoms: _126  and  _127
REMARK   62  A    between atoms: _126  and  _129
REMARK   63  A    between atoms: _129  and  _130
REMARK   64  A    between atoms: _133  and  _135
REMARK   65  A    between atoms: _135  and  _136
REMARK   66  A    between atoms: _135  and  _138
REMARK   67  A    between atoms: _138  and  _139
REMARK   68  A    between atoms: _142  and  _144
REMARK   69  A    between atoms: _144  and  _145
REMARK   70  A    between atoms: _144  and  _147
REMARK   71  A    between atoms: _147  and  _148
REMARK   72  A    between atoms: _151  and  _153
REMARK   73  A    between atoms: _153  and  _154
REMARK   74  A    between atoms: _153  and  _156
REMARK   75  A    between atoms: _156  and  _157
REMARK   76  A    between atoms: _160  and  _162
REMARK   77  A    between atoms: _162  and  _163
REMARK   78  A    between atoms: _162  and  _165
REMARK   79  A    between atoms: _165  and  _166
REMARK   80  A    between atoms: _168  and  _170
REMARK   81  A    between atoms: _170  and  _171
REMARK   82  A    between atoms: _170  and  _173
REMARK   83  A    between atoms: _176  and  _178
REMARK   84  A    between atoms: _178  and  _179
REMARK   85  A    between atoms: _178  and  _181
REMARK   86  A    between atoms: _181  and  _182
REMARK   87  A    between atoms: _182  and  _183
REMARK   88  A    between atoms: _186  and  _188
REMARK   89  A    between atoms: _188  and  _189
REMARK   90  A    between atoms: _188  and  _191
REMARK   91  A    between atoms: _191  and  _192
REMARK   92  A    between atoms: _195  and  _197
REMARK   93  A    between atoms: _197  and  _198
REMARK   94  A    between atoms: _197  and  _200
REMARK   95  A    between atoms: _200  and  _201
REMARK   96  A    between atoms: _204  and  _206
REMARK   97  A    between atoms: _206  and  _207
REMARK   98  A    between atoms: _206  and  _209
REMARK   99  A    between atoms: _209  and  _210
REMARK  100  A    between atoms: _215  and  _217
REMARK  101  A    between atoms: _217  and  _218
REMARK  102  A    between atoms: _217  and  _220
REMARK  103  A    between atoms: _220  and  _221
REMARK  104  A    between atoms: _226  and  _228
REMARK  105  A    between atoms: _228  and  _229
REMARK  106  A    between atoms: _228  and  _231
REMARK  107  A    between atoms: _231  and  _232
REMARK  108  A    between atoms: _235  and  _237
REMARK  109  A    between atoms: _237  and  _238
REMARK  110  A    between atoms: _237  and  _240
REMARK  111  A    between atoms: _240  and  _241
REMARK  112  A    between atoms: _243  and  _245
REMARK  113  A    between atoms: _245  and  _246
REMARK  114  A    between atoms: _245  and  _248
REMARK  115  A    between atoms: _248  and  _249
REMARK  116  A    between atoms: _255  and  _257
REMARK  117  A    between atoms: _257  and  _258
REMARK  118  A    between atoms: _257  and  _260
REMARK  119  A    between atoms: _260  and  _261
REMARK  120  A    between atoms: _271  and  _273
REMARK  121  A    between atoms: _273  and  _274
REMARK  122  A    between atoms: _273  and  _276
REMARK  123  A    between atoms: _276  and  _277
REMARK  124  A    between atoms: _281  and  ZN_291
REMARK  125  A    between atoms: _282  and  _284
REMARK  126  A    between atoms: _284  and  _285
REMARK  127  A    between atoms: _284  and  _287
REMARK  128  A    between atoms: _287  and  _288
REMARK                            x       y       z     vdW  Elec       q    Type
REMARK                         _______ _______ _______ _____ _____    ______ ____
ROOT
ATOM      1  O   HOH     1     -16.129 -10.555  24.891  0.00  0.00    +0.000 OA
ENDROOT
TORSDOF 0
REMARK  Name = ../refined-set-2016/3pb8/3pb8_pocket.pdb
REMARK  128 active torsions:
REMARK  status: ('A' for Active; 'I' for Inactive)
REMARK    1  A    between atoms: _1  and  _3
REMARK    2  A    between atoms: _3  and  _4
REMARK    3  A    between atoms: _3  and  _6
REMARK    4  A    between atoms: _6  and  _7
REMARK    5  A    between atoms: _12  and  _14
REMARK    6  A    between atoms: _14  and  _15
REMARK    7  A    between atoms: _14  and  _17
REMARK    8  A    between atoms: _17  and  _18
REMARK    9  A    between atoms: _21  and  _23
REMARK   10  A    between atoms: _23  and  _24
REMARK   11  A    between atoms: _23  and  _26
REMARK   12  A    between atoms: _26  and  _27
REMARK   13  A    between atoms: _27  and  _28
REMARK   14  A    between atoms: _28  and  _29
REMARK   15  A    between atoms: _29  and  _30
REMARK   16  A    between atoms: _34  and  _36
REMARK   17  A    between atoms: _36  and  _37
REMARK   18  A    between atoms: _36  and  _39
REMARK   19  A    between atoms: _39  and  _40
REMARK   20  A    between atoms: _46  and  _48
REMARK   21  A    between atoms: _48  and  _49
REMARK   22  A    between atoms: _48  and  _51
REMARK   23  A    between atoms: _51  and  _52
REMARK   24  A    between atoms: _55  and  _57
REMARK   25  A    between atoms: _57  and  _58
REMARK   26  A    between atoms: _57  and  _60
REMARK   27  A    between atoms: _60  and  _61
REMARK   28  A    between atoms: _61  and  _63
REMARK   29  A    between atoms: _63  and  ZN_291
REMARK   30  A    between atoms: _64  and  _66
REMARK   31  A    between atoms: _66  and  _67
REMARK   32  A    between atoms: _66  and  _69
REMARK   33  A    between atoms: _69  and  _70
REMARK   34  A    between atoms: _72  and  _74
REMARK   35  A    between atoms: _74  and  _75
REMARK   36  A    between atoms: _74  and  _77
REMARK   37  A    between atoms: _77  and  _78
REMARK   38  A    between atoms: _78  and  _79
REMARK   39  A    between atoms: _82  and  _84
REMARK   40  A    between atoms: _84  and  _85
REMARK   41  A    between atoms: _84  and  _87
REMARK   42  A    between atoms: _87  and  _88
REMARK   43  A    between atoms: _88  and  _89
REMARK   44  A    between atoms: _89  and  _91
REMARK   45  A    between atoms: _91  and  ZN_291
REMARK   46  A    between atoms: _92  and  _94
REMARK   47  A    between atoms: _94  and  _95
REMARK   48  A    between atoms: _98  and  _100
REMARK   49  A    between atoms: _100  and  _101
REMARK   50  A    between atoms: _100  and  _103
REMARK   51  A    between atoms: _103  and  _104
REMARK   52  A    between atoms: _106  and  _108
REMARK   53  A    between atoms: _108  and  _109
REMARK   54  A    between atoms: _108  and  _111
REMARK   55  A    between atoms: _111  and  _112
REMARK   56  A    between atoms: _115  and  _117
REMARK   57  A    between atoms: _117  and  _118
REMARK   58  A    between atoms: _117  and  _120
REMARK   59  A    between atoms: _120  and  _121
REMARK   60  A    between atoms: _124  and  _126
REMARK   61  A    between atoms: _126  and  _127
REMARK   62  A    between atoms: _126  and  _129
REMARK   63  A    between atoms: _129  and  _130
REMARK   64  A    between atoms: _133  and  _135
REMARK   65  A    between atoms: _135  and  _136
REMARK   66  A    between atoms: _135  and  _138
REMARK   67  A    between atoms: _138  and  _139
REMARK   68  A    between atoms: _142  and  _144
REMARK   69  A    between atoms: _144  and  _145
REMARK   70  A    between atoms: _144  and  _147
REMARK   71  A    between atoms: _147  and  _148
REMARK   72  A    between atoms: _151  and  _153
REMARK   73  A    between atoms: _153  and  _154
REMARK   74  A    between atoms: _153  and  _156
REMARK   75  A    between atoms: _156  and  _157
REMARK   76  A    between atoms: _160  and  _162
REMARK   77  A    between atoms: _162  and  _163
REMARK   78  A    between atoms: _162  and  _165
REMARK   79  A    between atoms: _165  and  _166
REMARK   80  A    between atoms: _168  and  _170
REMARK   81  A    between atoms: _170  and  _171
REMARK   82  A    between atoms: _170  and  _173
REMARK   83  A    between atoms: _176  and  _178
REMARK   84  A    between atoms: _178  and  _179
REMARK   85  A    between atoms: _178  and  _181
REMARK   86  A    between atoms: _181  and  _182
REMARK   87  A    between atoms: _182  and  _183
REMARK   88  A    between atoms: _186  and  _188
REMARK   89  A    between atoms: _188  and  _189
REMARK   90  A    between atoms: _188  and  _191
REMARK   91  A    between atoms: _191  and  _192
REMARK   92  A    between atoms: _195  and  _197
REMARK   93  A    between atoms: _197  and  _198
REMARK   94  A    between atoms: _197  and  _200
REMARK   95  A    between atoms: _200  and  _201
REMARK   96  A    between atoms: _204  and  _206
REMARK   97  A    between atoms: _206  and  _207
REMARK   98  A    between atoms: _206  and  _209
REMARK   99  A    between atoms: _209  and  _210
REMARK  100  A    between atoms: _215  and  _217
REMARK  101  A    between atoms: _217  and  _218
REMARK  102  A    between atoms: _217  and  _220
REMARK  103  A    between atoms: _220  and  _221
REMARK  104  A    between atoms: _226  and  _228
REMARK  105  A    between atoms: _228  and  _229
REMARK  106  A    between atoms: _228  and  _231
REMARK  107  A    between atoms: _231  and  _232
REMARK  108  A    between atoms: _235  and  _237
REMARK  109  A    between atoms: _237  and  _238
REMARK  110  A    between atoms: _237  and  _240
REMARK  111  A    between atoms: _240  and  _241
REMARK  112  A    between atoms: _243  and  _245
REMARK  113  A    between atoms: _245  and  _246
REMARK  114  A    between atoms: _245  and  _248
REMARK  115  A    between atoms: _248  and  _249
REMARK  116  A    between atoms: _255  and  _257
REMARK  117  A    between atoms: _257  and  _258
REMARK  118  A    between atoms: _257  and  _260
REMARK  119  A    between atoms: _260  and  _261
REMARK  120  A    between atoms: _271  and  _273
REMARK  121  A    between atoms: _273  and  _274
REMARK  122  A    between atoms: _273  and  _276
REMARK  123  A    between atoms: _276  and  _277
REMARK  124  A    between atoms: _281  and  ZN_291
REMARK  125  A    between atoms: _282  and  _284
REMARK  126  A    between atoms: _284  and  _285
REMARK  127  A    between atoms: _284  and  _287
REMARK  128  A    between atoms: _287  and  _288
REMARK                            x       y       z     vdW  Elec       q    Type
REMARK                         _______ _______ _______ _____ _____    ______ ____
ROOT
ATOM      1  O   HOH     1     -20.123 -11.980  27.304  0.00  0.00    +0.000 OA
ENDROOT
TORSDOF 0
REMARK  Name = ../refined-set-2016/3pb8/3pb8_pocket.pdb
REMARK  128 active torsions:
REMARK  status: ('A' for Active; 'I' for Inactive)
REMARK    1  A    between atoms: _1  and  _3
REMARK    2  A    between atoms: _3  and  _4
REMARK    3  A    between atoms: _3  and  _6
REMARK    4  A    between atoms: _6  and  _7
REMARK    5  A    between atoms: _12  and  _14
REMARK    6  A    between atoms: _14  and  _15
REMARK    7  A    between atoms: _14  and  _17
REMARK    8  A    between atoms: _17  and  _18
REMARK    9  A    between atoms: _21  and  _23
REMARK   10  A    between atoms: _23  and  _24
REMARK   11  A    between atoms: _23  and  _26
REMARK   12  A    between atoms: _26  and  _27
REMARK   13  A    between atoms: _27  and  _28
REMARK   14  A    between atoms: _28  and  _29
REMARK   15  A    between atoms: _29  and  _30
REMARK   16  A    between atoms: _34  and  _36
REMARK   17  A    between atoms: _36  and  _37
REMARK   18  A    between atoms: _36  and  _39
REMARK   19  A    between atoms: _39  and  _40
REMARK   20  A    between atoms: _46  and  _48
REMARK   21  A    between atoms: _48  and  _49
REMARK   22  A    between atoms: _48  and  _51
REMARK   23  A    between atoms: _51  and  _52
REMARK   24  A    between atoms: _55  and  _57
REMARK   25  A    between atoms: _57  and  _58
REMARK   26  A    between atoms: _57  and  _60
REMARK   27  A    between atoms: _60  and  _61
REMARK   28  A    between atoms: _61  and  _63
REMARK   29  A    between atoms: _63  and  ZN_291
REMARK   30  A    between atoms: _64  and  _66
REMARK   31  A    between atoms: _66  and  _67
REMARK   32  A    between atoms: _66  and  _69
REMARK   33  A    between atoms: _69  and  _70
REMARK   34  A    between atoms: _72  and  _74
REMARK   35  A    between atoms: _74  and  _75
REMARK   36  A    between atoms: _74  and  _77
REMARK   37  A    between atoms: _77  and  _78
REMARK   38  A    between atoms: _78  and  _79
REMARK   39  A    between atoms: _82  and  _84
REMARK   40  A    between atoms: _84  and  _85
REMARK   41  A    between atoms: _84  and  _87
REMARK   42  A    between atoms: _87  and  _88
REMARK   43  A    between atoms: _88  and  _89
REMARK   44  A    between atoms: _89  and  _91
REMARK   45  A    between atoms: _91  and  ZN_291
REMARK   46  A    between atoms: _92  and  _94
REMARK   47  A    between atoms: _94  and  _95
REMARK   48  A    between atoms: _98  and  _100
REMARK   49  A    between atoms: _100  and  _101
REMARK   50  A    between atoms: _100  and  _103
REMARK   51  A    between atoms: _103  and  _104
REMARK   52  A    between atoms: _106  and  _108
REMARK   53  A    between atoms: _108  and  _109
REMARK   54  A    between atoms: _108  and  _111
REMARK   55  A    between atoms: _111  and  _112
REMARK   56  A    between atoms: _115  and  _117
REMARK   57  A    between atoms: _117  and  _118
REMARK   58  A    between atoms: _117  and  _120
REMARK   59  A    between atoms: _120  and  _121
REMARK   60  A    between atoms: _124  and  _126
REMARK   61  A    between atoms: _126  and  _127
REMARK   62  A    between atoms: _126  and  _129
REMARK   63  A    between atoms: _129  and  _130
REMARK   64  A    between atoms: _133  and  _135
REMARK   65  A    between atoms: _135  and  _136
REMARK   66  A    between atoms: _135  and  _138
REMARK   67  A    between atoms: _138  and  _139
REMARK   68  A    between atoms: _142  and  _144
REMARK   69  A    between atoms: _144  and  _145
REMARK   70  A    between atoms: _144  and  _147
REMARK   71  A    between atoms: _147  and  _148
REMARK   72  A    between atoms: _151  and  _153
REMARK   73  A    between atoms: _153  and  _154
REMARK   74  A    between atoms: _153  and  _156
REMARK   75  A    between atoms: _156  and  _157
REMARK   76  A    between atoms: _160  and  _162
REMARK   77  A    between atoms: _162  and  _163
REMARK   78  A    between atoms: _162  and  _165
REMARK   79  A    between atoms: _165  and  _166
REMARK   80  A    between atoms: _168  and  _170
REMARK   81  A    between atoms: _170  and  _171
REMARK   82  A    between atoms: _170  and  _173
REMARK   83  A    between atoms: _176  and  _178
REMARK   84  A    between atoms: _178  and  _179
REMARK   85  A    between atoms: _178  and  _181
REMARK   86  A    between atoms: _181  and  _182
REMARK   87  A    between atoms: _182  and  _183
REMARK   88  A    between atoms: _186  and  _188
REMARK   89  A    between atoms: _188  and  _189
REMARK   90  A    between atoms: _188  and  _191
REMARK   91  A    between atoms: _191  and  _192
REMARK   92  A    between atoms: _195  and  _197
REMARK   93  A    between atoms: _197  and  _198
REMARK   94  A    between atoms: _197  and  _200
REMARK   95  A    between atoms: _200  and  _201
REMARK   96  A    between atoms: _204  and  _206
REMARK   97  A    between atoms: _206  and  _207
REMARK   98  A    between atoms: _206  and  _209
REMARK   99  A    between atoms: _209  and  _210
REMARK  100  A    between atoms: _215  and  _217
REMARK  101  A    between atoms: _217  and  _218
REMARK  102  A    between atoms: _217  and  _220
REMARK  103  A    between atoms: _220  and  _221
REMARK  104  A    between atoms: _226  and  _228
REMARK  105  A    between atoms: _228  and  _229
REMARK  106  A    between atoms: _228  and  _231
REMARK  107  A    between atoms: _231  and  _232
REMARK  108  A    between atoms: _235  and  _237
REMARK  109  A    between atoms: _237  and  _238
REMARK  110  A    between atoms: _237  and  _240
REMARK  111  A    between atoms: _240  and  _241
REMARK  112  A    between atoms: _243  and  _245
REMARK  113  A    between atoms: _245  and  _246
REMARK  114  A    between atoms: _245  and  _248
REMARK  115  A    between atoms: _248  and  _249
REMARK  116  A    between atoms: _255  and  _257
REMARK  117  A    between atoms: _257  and  _258
REMARK  118  A    between atoms: _257  and  _260
REMARK  119  A    between atoms: _260  and  _261
REMARK  120  A    between atoms: _271  and  _273
REMARK  121  A    between atoms: _273  and  _274
REMARK  122  A    between atoms: _273  and  _276
REMARK  123  A    between atoms: _276  and  _277
REMARK  124  A    between atoms: _281  and  ZN_291
REMARK  125  A    between atoms: _282  and  _284
REMARK  126  A    between atoms: _284  and  _285
REMARK  127  A    between atoms: _284  and  _287
REMARK  128  A    between atoms: _287  and  _288
REMARK                            x       y       z     vdW  Elec       q    Type
REMARK                         _______ _______ _______ _____ _____    ______ ____
ROOT
ATOM      1  O   HOH     1     -18.118 -16.811  15.383  0.00  0.00    +0.000 OA
ENDROOT
TORSDOF 0
REMARK  Name = ../refined-set-2016/3pb8/3pb8_pocket.pdb
REMARK  128 active torsions:
REMARK  status: ('A' for Active; 'I' for Inactive)
REMARK    1  A    between atoms: _1  and  _3
REMARK    2  A    between atoms: _3  and  _4
REMARK    3  A    between atoms: _3  and  _6
REMARK    4  A    between atoms: _6  and  _7
REMARK    5  A    between atoms: _12  and  _14
REMARK    6  A    between atoms: _14  and  _15
REMARK    7  A    between atoms: _14  and  _17
REMARK    8  A    between atoms: _17  and  _18
REMARK    9  A    between atoms: _21  and  _23
REMARK   10  A    between atoms: _23  and  _24
REMARK   11  A    between atoms: _23  and  _26
REMARK   12  A    between atoms: _26  and  _27
REMARK   13  A    between atoms: _27  and  _28
REMARK   14  A    between atoms: _28  and  _29
REMARK   15  A    between atoms: _29  and  _30
REMARK   16  A    between atoms: _34  and  _36
REMARK   17  A    between atoms: _36  and  _37
REMARK   18  A    between atoms: _36  and  _39
REMARK   19  A    between atoms: _39  and  _40
REMARK   20  A    between atoms: _46  and  _48
REMARK   21  A    between atoms: _48  and  _49
REMARK   22  A    between atoms: _48  and  _51
REMARK   23  A    between atoms: _51  and  _52
REMARK   24  A    between atoms: _55  and  _57
REMARK   25  A    between atoms: _57  and  _58
REMARK   26  A    between atoms: _57  and  _60
REMARK   27  A    between atoms: _60  and  _61
REMARK   28  A    between atoms: _61  and  _63
REMARK   29  A    between atoms: _63  and  ZN_291
REMARK   30  A    between atoms: _64  and  _66
REMARK   31  A    between atoms: _66  and  _67
REMARK   32  A    between atoms: _66  and  _69
REMARK   33  A    between atoms: _69  and  _70
REMARK   34  A    between atoms: _72  and  _74
REMARK   35  A    between atoms: _74  and  _75
REMARK   36  A    between atoms: _74  and  _77
REMARK   37  A    between atoms: _77  and  _78
REMARK   38  A    between atoms: _78  and  _79
REMARK   39  A    between atoms: _82  and  _84
REMARK   40  A    between atoms: _84  and  _85
REMARK   41  A    between atoms: _84  and  _87
REMARK   42  A    between atoms: _87  and  _88
REMARK   43  A    between atoms: _88  and  _89
REMARK   44  A    between atoms: _89  and  _91
REMARK   45  A    between atoms: _91  and  ZN_291
REMARK   46  A    between atoms: _92  and  _94
REMARK   47  A    between atoms: _94  and  _95
REMARK   48  A    between atoms: _98  and  _100
REMARK   49  A    between atoms: _100  and  _101
REMARK   50  A    between atoms: _100  and  _103
REMARK   51  A    between atoms: _103  and  _104
REMARK   52  A    between atoms: _106  and  _108
REMARK   53  A    between atoms: _108  and  _109
REMARK   54  A    between atoms: _108  and  _111
REMARK   55  A    between atoms: _111  and  _112
REMARK   56  A    between atoms: _115  and  _117
REMARK   57  A    between atoms: _117  and  _118
REMARK   58  A    between atoms: _117  and  _120
REMARK   59  A    between atoms: _120  and  _121
REMARK   60  A    between atoms: _124  and  _126
REMARK   61  A    between atoms: _126  and  _127
REMARK   62  A    between atoms: _126  and  _129
REMARK   63  A    between atoms: _129  and  _130
REMARK   64  A    between atoms: _133  and  _135
REMARK   65  A    between atoms: _135  and  _136
REMARK   66  A    between atoms: _135  and  _138
REMARK   67  A    between atoms: _138  and  _139
REMARK   68  A    between atoms: _142  and  _144
REMARK   69  A    between atoms: _144  and  _145
REMARK   70  A    between atoms: _144  and  _147
REMARK   71  A    between atoms: _147  and  _148
REMARK   72  A    between atoms: _151  and  _153
REMARK   73  A    between atoms: _153  and  _154
REMARK   74  A    between atoms: _153  and  _156
REMARK   75  A    between atoms: _156  and  _157
REMARK   76  A    between atoms: _160  and  _162
REMARK   77  A    between atoms: _162  and  _163
REMARK   78  A    between atoms: _162  and  _165
REMARK   79  A    between atoms: _165  and  _166
REMARK   80  A    between atoms: _168  and  _170
REMARK   81  A    between atoms: _170  and  _171
REMARK   82  A    between atoms: _170  and  _173
REMARK   83  A    between atoms: _176  and  _178
REMARK   84  A    between atoms: _178  and  _179
REMARK   85  A    between atoms: _178  and  _181
REMARK   86  A    between atoms: _181  and  _182
REMARK   87  A    between atoms: _182  and  _183
REMARK   88  A    between atoms: _186  and  _188
REMARK   89  A    between atoms: _188  and  _189
REMARK   90  A    between atoms: _188  and  _191
REMARK   91  A    between atoms: _191  and  _192
REMARK   92  A    between atoms: _195  and  _197
REMARK   93  A    between atoms: _197  and  _198
REMARK   94  A    between atoms: _197  and  _200
REMARK   95  A    between atoms: _200  and  _201
REMARK   96  A    between atoms: _204  and  _206
REMARK   97  A    between atoms: _206  and  _207
REMARK   98  A    between atoms: _206  and  _209
REMARK   99  A    between atoms: _209  and  _210
REMARK  100  A    between atoms: _215  and  _217
REMARK  101  A    between atoms: _217  and  _218
REMARK  102  A    between atoms: _217  and  _220
REMARK  103  A    between atoms: _220  and  _221
REMARK  104  A    between atoms: _226  and  _228
REMARK  105  A    between atoms: _228  and  _229
REMARK  106  A    between atoms: _228  and  _231
REMARK  107  A    between atoms: _231  and  _232
REMARK  108  A    between atoms: _235  and  _237
REMARK  109  A    between atoms: _237  and  _238
REMARK  110  A    between atoms: _237  and  _240
REMARK  111  A    between atoms: _240  and  _241
REMARK  112  A    between atoms: _243  and  _245
REMARK  113  A    between atoms: _245  and  _246
REMARK  114  A    between atoms: _245  and  _248
REMARK  115  A    between atoms: _248  and  _249
REMARK  116  A    between atoms: _255  and  _257
REMARK  117  A    between atoms: _257  and  _258
REMARK  118  A    between atoms: _257  and  _260
REMARK  119  A    between atoms: _260  and  _261
REMARK  120  A    between atoms: _271  and  _273
REMARK  121  A    between atoms: _273  and  _274
REMARK  122  A    between atoms: _273  and  _276
REMARK  123  A    between atoms: _276  and  _277
REMARK  124  A    between atoms: _281  and  ZN_291
REMARK  125  A    between atoms: _282  and  _284
REMARK  126  A    between atoms: _284  and  _285
REMARK  127  A    between atoms: _284  and  _287
REMARK  128  A    between atoms: _287  and  _288
REMARK                            x       y       z     vdW  Elec       q    Type
REMARK                         _______ _______ _______ _____ _____    ______ ____
ROOT
ATOM      1  O   HOH     1     -17.200 -13.948  24.437  0.00  0.00    +0.000 OA
ENDROOT
TORSDOF 0
REMARK  Name = ../refined-set-2016/3pb8/3pb8_pocket.pdb
REMARK  128 active torsions:
REMARK  status: ('A' for Active; 'I' for Inactive)
REMARK    1  A    between atoms: _1  and  _3
REMARK    2  A    between atoms: _3  and  _4
REMARK    3  A    between atoms: _3  and  _6
REMARK    4  A    between atoms: _6  and  _7
REMARK    5  A    between atoms: _12  and  _14
REMARK    6  A    between atoms: _14  and  _15
REMARK    7  A    between atoms: _14  and  _17
REMARK    8  A    between atoms: _17  and  _18
REMARK    9  A    between atoms: _21  and  _23
REMARK   10  A    between atoms: _23  and  _24
REMARK   11  A    between atoms: _23  and  _26
REMARK   12  A    between atoms: _26  and  _27
REMARK   13  A    between atoms: _27  and  _28
REMARK   14  A    between atoms: _28  and  _29
REMARK   15  A    between atoms: _29  and  _30
REMARK   16  A    between atoms: _34  and  _36
REMARK   17  A    between atoms: _36  and  _37
REMARK   18  A    between atoms: _36  and  _39
REMARK   19  A    between atoms: _39  and  _40
REMARK   20  A    between atoms: _46  and  _48
REMARK   21  A    between atoms: _48  and  _49
REMARK   22  A    between atoms: _48  and  _51
REMARK   23  A    between atoms: _51  and  _52
REMARK   24  A    between atoms: _55  and  _57
REMARK   25  A    between atoms: _57  and  _58
REMARK   26  A    between atoms: _57  and  _60
REMARK   27  A    between atoms: _60  and  _61
REMARK   28  A    between atoms: _61  and  _63
REMARK   29  A    between atoms: _63  and  ZN_291
REMARK   30  A    between atoms: _64  and  _66
REMARK   31  A    between atoms: _66  and  _67
REMARK   32  A    between atoms: _66  and  _69
REMARK   33  A    between atoms: _69  and  _70
REMARK   34  A    between atoms: _72  and  _74
REMARK   35  A    between atoms: _74  and  _75
REMARK   36  A    between atoms: _74  and  _77
REMARK   37  A    between atoms: _77  and  _78
REMARK   38  A    between atoms: _78  and  _79
REMARK   39  A    between atoms: _82  and  _84
REMARK   40  A    between atoms: _84  and  _85
REMARK   41  A    between atoms: _84  and  _87
REMARK   42  A    between atoms: _87  and  _88
REMARK   43  A    between atoms: _88  and  _89
REMARK   44  A    between atoms: _89  and  _91
REMARK   45  A    between atoms: _91  and  ZN_291
REMARK   46  A    between atoms: _92  and  _94
REMARK   47  A    between atoms: _94  and  _95
REMARK   48  A    between atoms: _98  and  _100
REMARK   49  A    between atoms: _100  and  _101
REMARK   50  A    between atoms: _100  and  _103
REMARK   51  A    between atoms: _103  and  _104
REMARK   52  A    between atoms: _106  and  _108
REMARK   53  A    between atoms: _108  and  _109
REMARK   54  A    between atoms: _108  and  _111
REMARK   55  A    between atoms: _111  and  _112
REMARK   56  A    between atoms: _115  and  _117
REMARK   57  A    between atoms: _117  and  _118
REMARK   58  A    between atoms: _117  and  _120
REMARK   59  A    between atoms: _120  and  _121
REMARK   60  A    between atoms: _124  and  _126
REMARK   61  A    between atoms: _126  and  _127
REMARK   62  A    between atoms: _126  and  _129
REMARK   63  A    between atoms: _129  and  _130
REMARK   64  A    between atoms: _133  and  _135
REMARK   65  A    between atoms: _135  and  _136
REMARK   66  A    between atoms: _135  and  _138
REMARK   67  A    between atoms: _138  and  _139
REMARK   68  A    between atoms: _142  and  _144
REMARK   69  A    between atoms: _144  and  _145
REMARK   70  A    between atoms: _144  and  _147
REMARK   71  A    between atoms: _147  and  _148
REMARK   72  A    between atoms: _151  and  _153
REMARK   73  A    between atoms: _153  and  _154
REMARK   74  A    between atoms: _153  and  _156
REMARK   75  A    between atoms: _156  and  _157
REMARK   76  A    between atoms: _160  and  _162
REMARK   77  A    between atoms: _162  and  _163
REMARK   78  A    between atoms: _162  and  _165
REMARK   79  A    between atoms: _165  and  _166
REMARK   80  A    between atoms: _168  and  _170
REMARK   81  A    between atoms: _170  and  _171
REMARK   82  A    between atoms: _170  and  _173
REMARK   83  A    between atoms: _176  and  _178
REMARK   84  A    between atoms: _178  and  _179
REMARK   85  A    between atoms: _178  and  _181
REMARK   86  A    between atoms: _181  and  _182
REMARK   87  A    between atoms: _182  and  _183
REMARK   88  A    between atoms: _186  and  _188
REMARK   89  A    between atoms: _188  and  _189
REMARK   90  A    between atoms: _188  and  _191
REMARK   91  A    between atoms: _191  and  _192
REMARK   92  A    between atoms: _195  and  _197
REMARK   93  A    between atoms: _197  and  _198
REMARK   94  A    between atoms: _197  and  _200
REMARK   95  A    between atoms: _200  and  _201
REMARK   96  A    between atoms: _204  and  _206
REMARK   97  A    between atoms: _206  and  _207
REMARK   98  A    between atoms: _206  and  _209
REMARK   99  A    between atoms: _209  and  _210
REMARK  100  A    between atoms: _215  and  _217
REMARK  101  A    between atoms: _217  and  _218
REMARK  102  A    between atoms: _217  and  _220
REMARK  103  A    between atoms: _220  and  _221
REMARK  104  A    between atoms: _226  and  _228
REMARK  105  A    between atoms: _228  and  _229
REMARK  106  A    between atoms: _228  and  _231
REMARK  107  A    between atoms: _231  and  _232
REMARK  108  A    between atoms: _235  and  _237
REMARK  109  A    between atoms: _237  and  _238
REMARK  110  A    between atoms: _237  and  _240
REMARK  111  A    between atoms: _240  and  _241
REMARK  112  A    between atoms: _243  and  _245
REMARK  113  A    between atoms: _245  and  _246
REMARK  114  A    between atoms: _245  and  _248
REMARK  115  A    between atoms: _248  and  _249
REMARK  116  A    between atoms: _255  and  _257
REMARK  117  A    between atoms: _257  and  _258
REMARK  118  A    between atoms: _257  and  _260
REMARK  119  A    between atoms: _260  and  _261
REMARK  120  A    between atoms: _271  and  _273
REMARK  121  A    between atoms: _273  and  _274
REMARK  122  A    between atoms: _273  and  _276
REMARK  123  A    between atoms: _276  and  _277
REMARK  124  A    between atoms: _281  and  ZN_291
REMARK  125  A    between atoms: _282  and  _284
REMARK  126  A    between atoms: _284  and  _285
REMARK  127  A    between atoms: _284  and  _287
REMARK  128  A    between atoms: _287  and  _288
REMARK                            x       y       z     vdW  Elec       q    Type
REMARK                         _______ _______ _______ _____ _____    ______ ____
ROOT
ATOM      1  O   HOH     1     -17.448 -19.363  14.776  0.00  0.00    +0.000 OA
ENDROOT
TORSDOF 0
REMARK  Name = ../refined-set-2016/3pb8/3pb8_pocket.pdb
REMARK  128 active torsions:
REMARK  status: ('A' for Active; 'I' for Inactive)
REMARK    1  A    between atoms: _1  and  _3
REMARK    2  A    between atoms: _3  and  _4
REMARK    3  A    between atoms: _3  and  _6
REMARK    4  A    between atoms: _6  and  _7
REMARK    5  A    between atoms: _12  and  _14
REMARK    6  A    between atoms: _14  and  _15
REMARK    7  A    between atoms: _14  and  _17
REMARK    8  A    between atoms: _17  and  _18
REMARK    9  A    between atoms: _21  and  _23
REMARK   10  A    between atoms: _23  and  _24
REMARK   11  A    between atoms: _23  and  _26
REMARK   12  A    between atoms: _26  and  _27
REMARK   13  A    between atoms: _27  and  _28
REMARK   14  A    between atoms: _28  and  _29
REMARK   15  A    between atoms: _29  and  _30
REMARK   16  A    between atoms: _34  and  _36
REMARK   17  A    between atoms: _36  and  _37
REMARK   18  A    between atoms: _36  and  _39
REMARK   19  A    between atoms: _39  and  _40
REMARK   20  A    between atoms: _46  and  _48
REMARK   21  A    between atoms: _48  and  _49
REMARK   22  A    between atoms: _48  and  _51
REMARK   23  A    between atoms: _51  and  _52
REMARK   24  A    between atoms: _55  and  _57
REMARK   25  A    between atoms: _57  and  _58
REMARK   26  A    between atoms: _57  and  _60
REMARK   27  A    between atoms: _60  and  _61
REMARK   28  A    between atoms: _61  and  _63
REMARK   29  A    between atoms: _63  and  ZN_291
REMARK   30  A    between atoms: _64  and  _66
REMARK   31  A    between atoms: _66  and  _67
REMARK   32  A    between atoms: _66  and  _69
REMARK   33  A    between atoms: _69  and  _70
REMARK   34  A    between atoms: _72  and  _74
REMARK   35  A    between atoms: _74  and  _75
REMARK   36  A    between atoms: _74  and  _77
REMARK   37  A    between atoms: _77  and  _78
REMARK   38  A    between atoms: _78  and  _79
REMARK   39  A    between atoms: _82  and  _84
REMARK   40  A    between atoms: _84  and  _85
REMARK   41  A    between atoms: _84  and  _87
REMARK   42  A    between atoms: _87  and  _88
REMARK   43  A    between atoms: _88  and  _89
REMARK   44  A    between atoms: _89  and  _91
REMARK   45  A    between atoms: _91  and  ZN_291
REMARK   46  A    between atoms: _92  and  _94
REMARK   47  A    between atoms: _94  and  _95
REMARK   48  A    between atoms: _98  and  _100
REMARK   49  A    between atoms: _100  and  _101
REMARK   50  A    between atoms: _100  and  _103
REMARK   51  A    between atoms: _103  and  _104
REMARK   52  A    between atoms: _106  and  _108
REMARK   53  A    between atoms: _108  and  _109
REMARK   54  A    between atoms: _108  and  _111
REMARK   55  A    between atoms: _111  and  _112
REMARK   56  A    between atoms: _115  and  _117
REMARK   57  A    between atoms: _117  and  _118
REMARK   58  A    between atoms: _117  and  _120
REMARK   59  A    between atoms: _120  and  _121
REMARK   60  A    between atoms: _124  and  _126
REMARK   61  A    between atoms: _126  and  _127
REMARK   62  A    between atoms: _126  and  _129
REMARK   63  A    between atoms: _129  and  _130
REMARK   64  A    between atoms: _133  and  _135
REMARK   65  A    between atoms: _135  and  _136
REMARK   66  A    between atoms: _135  and  _138
REMARK   67  A    between atoms: _138  and  _139
REMARK   68  A    between atoms: _142  and  _144
REMARK   69  A    between atoms: _144  and  _145
REMARK   70  A    between atoms: _144  and  _147
REMARK   71  A    between atoms: _147  and  _148
REMARK   72  A    between atoms: _151  and  _153
REMARK   73  A    between atoms: _153  and  _154
REMARK   74  A    between atoms: _153  and  _156
REMARK   75  A    between atoms: _156  and  _157
REMARK   76  A    between atoms: _160  and  _162
REMARK   77  A    between atoms: _162  and  _163
REMARK   78  A    between atoms: _162  and  _165
REMARK   79  A    between atoms: _165  and  _166
REMARK   80  A    between atoms: _168  and  _170
REMARK   81  A    between atoms: _170  and  _171
REMARK   82  A    between atoms: _170  and  _173
REMARK   83  A    between atoms: _176  and  _178
REMARK   84  A    between atoms: _178  and  _179
REMARK   85  A    between atoms: _178  and  _181
REMARK   86  A    between atoms: _181  and  _182
REMARK   87  A    between atoms: _182  and  _183
REMARK   88  A    between atoms: _186  and  _188
REMARK   89  A    between atoms: _188  and  _189
REMARK   90  A    between atoms: _188  and  _191
REMARK   91  A    between atoms: _191  and  _192
REMARK   92  A    between atoms: _195  and  _197
REMARK   93  A    between atoms: _197  and  _198
REMARK   94  A    between atoms: _197  and  _200
REMARK   95  A    between atoms: _200  and  _201
REMARK   96  A    between atoms: _204  and  _206
REMARK   97  A    between atoms: _206  and  _207
REMARK   98  A    between atoms: _206  and  _209
REMARK   99  A    between atoms: _209  and  _210
REMARK  100  A    between atoms: _215  and  _217
REMARK  101  A    between atoms: _217  and  _218
REMARK  102  A    between atoms: _217  and  _220
REMARK  103  A    between atoms: _220  and  _221
REMARK  104  A    between atoms: _226  and  _228
REMARK  105  A    between atoms: _228  and  _229
REMARK  106  A    between atoms: _228  and  _231
REMARK  107  A    between atoms: _231  and  _232
REMARK  108  A    between atoms: _235  and  _237
REMARK  109  A    between atoms: _237  and  _238
REMARK  110  A    between atoms: _237  and  _240
REMARK  111  A    between atoms: _240  and  _241
REMARK  112  A    between atoms: _243  and  _245
REMARK  113  A    between atoms: _245  and  _246
REMARK  114  A    between atoms: _245  and  _248
REMARK  115  A    between atoms: _248  and  _249
REMARK  116  A    between atoms: _255  and  _257
REMARK  117  A    between atoms: _257  and  _258
REMARK  118  A    between atoms: _257  and  _260
REMARK  119  A    between atoms: _260  and  _261
REMARK  120  A    between atoms: _271  and  _273
REMARK  121  A    between atoms: _273  and  _274
REMARK  122  A    between atoms: _273  and  _276
REMARK  123  A    between atoms: _276  and  _277
REMARK  124  A    between atoms: _281  and  ZN_291
REMARK  125  A    between atoms: _282  and  _284
REMARK  126  A    between atoms: _284  and  _285
REMARK  127  A    between atoms: _284  and  _287
REMARK  128  A    between atoms: _287  and  _288
REMARK                            x       y       z     vdW  Elec       q    Type
REMARK                         _______ _______ _______ _____ _____    ______ ____
ROOT
ATOM      1  O   HOH     1     -20.525 -20.187  16.445  0.00  0.00    +0.000 OA
ENDROOT
TORSDOF 0
REMARK  Name = ../refined-set-2016/3pb8/3pb8_pocket.pdb
REMARK  128 active torsions:
REMARK  status: ('A' for Active; 'I' for Inactive)
REMARK    1  A    between atoms: _1  and  _3
REMARK    2  A    between atoms: _3  and  _4
REMARK    3  A    between atoms: _3  and  _6
REMARK    4  A    between atoms: _6  and  _7
REMARK    5  A    between atoms: _12  and  _14
REMARK    6  A    between atoms: _14  and  _15
REMARK    7  A    between atoms: _14  and  _17
REMARK    8  A    between atoms: _17  and  _18
REMARK    9  A    between atoms: _21  and  _23
REMARK   10  A    between atoms: _23  and  _24
REMARK   11  A    between atoms: _23  and  _26
REMARK   12  A    between atoms: _26  and  _27
REMARK   13  A    between atoms: _27  and  _28
REMARK   14  A    between atoms: _28  and  _29
REMARK   15  A    between atoms: _29  and  _30
REMARK   16  A    between atoms: _34  and  _36
REMARK   17  A    between atoms: _36  and  _37
REMARK   18  A    between atoms: _36  and  _39
REMARK   19  A    between atoms: _39  and  _40
REMARK   20  A    between atoms: _46  and  _48
REMARK   21  A    between atoms: _48  and  _49
REMARK   22  A    between atoms: _48  and  _51
REMARK   23  A    between atoms: _51  and  _52
REMARK   24  A    between atoms: _55  and  _57
REMARK   25  A    between atoms: _57  and  _58
REMARK   26  A    between atoms: _57  and  _60
REMARK   27  A    between atoms: _60  and  _61
REMARK   28  A    between atoms: _61  and  _63
REMARK   29  A    between atoms: _63  and  ZN_291
REMARK   30  A    between atoms: _64  and  _66
REMARK   31  A    between atoms: _66  and  _67
REMARK   32  A    between atoms: _66  and  _69
REMARK   33  A    between atoms: _69  and  _70
REMARK   34  A    between atoms: _72  and  _74
REMARK   35  A    between atoms: _74  and  _75
REMARK   36  A    between atoms: _74  and  _77
REMARK   37  A    between atoms: _77  and  _78
REMARK   38  A    between atoms: _78  and  _79
REMARK   39  A    between atoms: _82  and  _84
REMARK   40  A    between atoms: _84  and  _85
REMARK   41  A    between atoms: _84  and  _87
REMARK   42  A    between atoms: _87  and  _88
REMARK   43  A    between atoms: _88  and  _89
REMARK   44  A    between atoms: _89  and  _91
REMARK   45  A    between atoms: _91  and  ZN_291
REMARK   46  A    between atoms: _92  and  _94
REMARK   47  A    between atoms: _94  and  _95
REMARK   48  A    between atoms: _98  and  _100
REMARK   49  A    between atoms: _100  and  _101
REMARK   50  A    between atoms: _100  and  _103
REMARK   51  A    between atoms: _103  and  _104
REMARK   52  A    between atoms: _106  and  _108
REMARK   53  A    between atoms: _108  and  _109
REMARK   54  A    between atoms: _108  and  _111
REMARK   55  A    between atoms: _111  and  _112
REMARK   56  A    between atoms: _115  and  _117
REMARK   57  A    between atoms: _117  and  _118
REMARK   58  A    between atoms: _117  and  _120
REMARK   59  A    between atoms: _120  and  _121
REMARK   60  A    between atoms: _124  and  _126
REMARK   61  A    between atoms: _126  and  _127
REMARK   62  A    between atoms: _126  and  _129
REMARK   63  A    between atoms: _129  and  _130
REMARK   64  A    between atoms: _133  and  _135
REMARK   65  A    between atoms: _135  and  _136
REMARK   66  A    between atoms: _135  and  _138
REMARK   67  A    between atoms: _138  and  _139
REMARK   68  A    between atoms: _142  and  _144
REMARK   69  A    between atoms: _144  and  _145
REMARK   70  A    between atoms: _144  and  _147
REMARK   71  A    between atoms: _147  and  _148
REMARK   72  A    between atoms: _151  and  _153
REMARK   73  A    between atoms: _153  and  _154
REMARK   74  A    between atoms: _153  and  _156
REMARK   75  A    between atoms: _156  and  _157
REMARK   76  A    between atoms: _160  and  _162
REMARK   77  A    between atoms: _162  and  _163
REMARK   78  A    between atoms: _162  and  _165
REMARK   79  A    between atoms: _165  and  _166
REMARK   80  A    between atoms: _168  and  _170
REMARK   81  A    between atoms: _170  and  _171
REMARK   82  A    between atoms: _170  and  _173
REMARK   83  A    between atoms: _176  and  _178
REMARK   84  A    between atoms: _178  and  _179
REMARK   85  A    between atoms: _178  and  _181
REMARK   86  A    between atoms: _181  and  _182
REMARK   87  A    between atoms: _182  and  _183
REMARK   88  A    between atoms: _186  and  _188
REMARK   89  A    between atoms: _188  and  _189
REMARK   90  A    between atoms: _188  and  _191
REMARK   91  A    between atoms: _191  and  _192
REMARK   92  A    between atoms: _195  and  _197
REMARK   93  A    between atoms: _197  and  _198
REMARK   94  A    between atoms: _197  and  _200
REMARK   95  A    between atoms: _200  and  _201
REMARK   96  A    between atoms: _204  and  _206
REMARK   97  A    between atoms: _206  and  _207
REMARK   98  A    between atoms: _206  and  _209
REMARK   99  A    between atoms: _209  and  _210
REMARK  100  A    between atoms: _215  and  _217
REMARK  101  A    between atoms: _217  and  _218
REMARK  102  A    between atoms: _217  and  _220
REMARK  103  A    between atoms: _220  and  _221
REMARK  104  A    between atoms: _226  and  _228
REMARK  105  A    between atoms: _228  and  _229
REMARK  106  A    between atoms: _228  and  _231
REMARK  107  A    between atoms: _231  and  _232
REMARK  108  A    between atoms: _235  and  _237
REMARK  109  A    between atoms: _237  and  _238
REMARK  110  A    between atoms: _237  and  _240
REMARK  111  A    between atoms: _240  and  _241
REMARK  112  A    between atoms: _243  and  _245
REMARK  113  A    between atoms: _245  and  _246
REMARK  114  A    between atoms: _245  and  _248
REMARK  115  A    between atoms: _248  and  _249
REMARK  116  A    between atoms: _255  and  _257
REMARK  117  A    between atoms: _257  and  _258
REMARK  118  A    between atoms: _257  and  _260
REMARK  119  A    between atoms: _260  and  _261
REMARK  120  A    between atoms: _271  and  _273
REMARK  121  A    between atoms: _273  and  _274
REMARK  122  A    between atoms: _273  and  _276
REMARK  123  A    between atoms: _276  and  _277
REMARK  124  A    between atoms: _281  and  ZN_291
REMARK  125  A    between atoms: _282  and  _284
REMARK  126  A    between atoms: _284  and  _285
REMARK  127  A    between atoms: _284  and  _287
REMARK  128  A    between atoms: _287  and  _288
REMARK                            x       y       z     vdW  Elec       q    Type
REMARK                         _______ _______ _______ _____ _____    ______ ____
ROOT
ATOM      1  O   HOH     1     -19.702 -18.412  18.327  0.00  0.00    +0.000 OA
ENDROOT
TORSDOF 0
REMARK  Name = ../refined-set-2016/3pb8/3pb8_pocket.pdb
REMARK  128 active torsions:
REMARK  status: ('A' for Active; 'I' for Inactive)
REMARK    1  A    between atoms: _1  and  _3
REMARK    2  A    between atoms: _3  and  _4
REMARK    3  A    between atoms: _3  and  _6
REMARK    4  A    between atoms: _6  and  _7
REMARK    5  A    between atoms: _12  and  _14
REMARK    6  A    between atoms: _14  and  _15
REMARK    7  A    between atoms: _14  and  _17
REMARK    8  A    between atoms: _17  and  _18
REMARK    9  A    between atoms: _21  and  _23
REMARK   10  A    between atoms: _23  and  _24
REMARK   11  A    between atoms: _23  and  _26
REMARK   12  A    between atoms: _26  and  _27
REMARK   13  A    between atoms: _27  and  _28
REMARK   14  A    between atoms: _28  and  _29
REMARK   15  A    between atoms: _29  and  _30
REMARK   16  A    between atoms: _34  and  _36
REMARK   17  A    between atoms: _36  and  _37
REMARK   18  A    between atoms: _36  and  _39
REMARK   19  A    between atoms: _39  and  _40
REMARK   20  A    between atoms: _46  and  _48
REMARK   21  A    between atoms: _48  and  _49
REMARK   22  A    between atoms: _48  and  _51
REMARK   23  A    between atoms: _51  and  _52
REMARK   24  A    between atoms: _55  and  _57
REMARK   25  A    between atoms: _57  and  _58
REMARK   26  A    between atoms: _57  and  _60
REMARK   27  A    between atoms: _60  and  _61
REMARK   28  A    between atoms: _61  and  _63
REMARK   29  A    between atoms: _63  and  ZN_291
REMARK   30  A    between atoms: _64  and  _66
REMARK   31  A    between atoms: _66  and  _67
REMARK   32  A    between atoms: _66  and  _69
REMARK   33  A    between atoms: _69  and  _70
REMARK   34  A    between atoms: _72  and  _74
REMARK   35  A    between atoms: _74  and  _75
REMARK   36  A    between atoms: _74  and  _77
REMARK   37  A    between atoms: _77  and  _78
REMARK   38  A    between atoms: _78  and  _79
REMARK   39  A    between atoms: _82  and  _84
REMARK   40  A    between atoms: _84  and  _85
REMARK   41  A    between atoms: _84  and  _87
REMARK   42  A    between atoms: _87  and  _88
REMARK   43  A    between atoms: _88  and  _89
REMARK   44  A    between atoms: _89  and  _91
REMARK   45  A    between atoms: _91  and  ZN_291
REMARK   46  A    between atoms: _92  and  _94
REMARK   47  A    between atoms: _94  and  _95
REMARK   48  A    between atoms: _98  and  _100
REMARK   49  A    between atoms: _100  and  _101
REMARK   50  A    between atoms: _100  and  _103
REMARK   51  A    between atoms: _103  and  _104
REMARK   52  A    between atoms: _106  and  _108
REMARK   53  A    between atoms: _108  and  _109
REMARK   54  A    between atoms: _108  and  _111
REMARK   55  A    between atoms: _111  and  _112
REMARK   56  A    between atoms: _115  and  _117
REMARK   57  A    between atoms: _117  and  _118
REMARK   58  A    between atoms: _117  and  _120
REMARK   59  A    between atoms: _120  and  _121
REMARK   60  A    between atoms: _124  and  _126
REMARK   61  A    between atoms: _126  and  _127
REMARK   62  A    between atoms: _126  and  _129
REMARK   63  A    between atoms: _129  and  _130
REMARK   64  A    between atoms: _133  and  _135
REMARK   65  A    between atoms: _135  and  _136
REMARK   66  A    between atoms: _135  and  _138
REMARK   67  A    between atoms: _138  and  _139
REMARK   68  A    between atoms: _142  and  _144
REMARK   69  A    between atoms: _144  and  _145
REMARK   70  A    between atoms: _144  and  _147
REMARK   71  A    between atoms: _147  and  _148
REMARK   72  A    between atoms: _151  and  _153
REMARK   73  A    between atoms: _153  and  _154
REMARK   74  A    between atoms: _153  and  _156
REMARK   75  A    between atoms: _156  and  _157
REMARK   76  A    between atoms: _160  and  _162
REMARK   77  A    between atoms: _162  and  _163
REMARK   78  A    between atoms: _162  and  _165
REMARK   79  A    between atoms: _165  and  _166
REMARK   80  A    between atoms: _168  and  _170
REMARK   81  A    between atoms: _170  and  _171
REMARK   82  A    between atoms: _170  and  _173
REMARK   83  A    between atoms: _176  and  _178
REMARK   84  A    between atoms: _178  and  _179
REMARK   85  A    between atoms: _178  and  _181
REMARK   86  A    between atoms: _181  and  _182
REMARK   87  A    between atoms: _182  and  _183
REMARK   88  A    between atoms: _186  and  _188
REMARK   89  A    between atoms: _188  and  _189
REMARK   90  A    between atoms: _188  and  _191
REMARK   91  A    between atoms: _191  and  _192
REMARK   92  A    between atoms: _195  and  _197
REMARK   93  A    between atoms: _197  and  _198
REMARK   94  A    between atoms: _197  and  _200
REMARK   95  A    between atoms: _200  and  _201
REMARK   96  A    between atoms: _204  and  _206
REMARK   97  A    between atoms: _206  and  _207
REMARK   98  A    between atoms: _206  and  _209
REMARK   99  A    between atoms: _209  and  _210
REMARK  100  A    between atoms: _215  and  _217
REMARK  101  A    between atoms: _217  and  _218
REMARK  102  A    between atoms: _217  and  _220
REMARK  103  A    between atoms: _220  and  _221
REMARK  104  A    between atoms: _226  and  _228
REMARK  105  A    between atoms: _228  and  _229
REMARK  106  A    between atoms: _228  and  _231
REMARK  107  A    between atoms: _231  and  _232
REMARK  108  A    between atoms: _235  and  _237
REMARK  109  A    between atoms: _237  and  _238
REMARK  110  A    between atoms: _237  and  _240
REMARK  111  A    between atoms: _240  and  _241
REMARK  112  A    between atoms: _243  and  _245
REMARK  113  A    between atoms: _245  and  _246
REMARK  114  A    between atoms: _245  and  _248
REMARK  115  A    between atoms: _248  and  _249
REMARK  116  A    between atoms: _255  and  _257
REMARK  117  A    between atoms: _257  and  _258
REMARK  118  A    between atoms: _257  and  _260
REMARK  119  A    between atoms: _260  and  _261
REMARK  120  A    between atoms: _271  and  _273
REMARK  121  A    between atoms: _273  and  _274
REMARK  122  A    between atoms: _273  and  _276
REMARK  123  A    between atoms: _276  and  _277
REMARK  124  A    between atoms: _281  and  ZN_291
REMARK  125  A    between atoms: _282  and  _284
REMARK  126  A    between atoms: _284  and  _285
REMARK  127  A    between atoms: _284  and  _287
REMARK  128  A    between atoms: _287  and  _288
REMARK                            x       y       z     vdW  Elec       q    Type
REMARK                         _______ _______ _______ _____ _____    ______ ____
ROOT
ATOM      1  O   HOH     1     -14.215 -14.588  17.681  0.00  0.00    +0.000 OA
ENDROOT
TORSDOF 0
REMARK  Name = ../refined-set-2016/3pb8/3pb8_pocket.pdb
REMARK  128 active torsions:
REMARK  status: ('A' for Active; 'I' for Inactive)
REMARK    1  A    between atoms: _1  and  _3
REMARK    2  A    between atoms: _3  and  _4
REMARK    3  A    between atoms: _3  and  _6
REMARK    4  A    between atoms: _6  and  _7
REMARK    5  A    between atoms: _12  and  _14
REMARK    6  A    between atoms: _14  and  _15
REMARK    7  A    between atoms: _14  and  _17
REMARK    8  A    between atoms: _17  and  _18
REMARK    9  A    between atoms: _21  and  _23
REMARK   10  A    between atoms: _23  and  _24
REMARK   11  A    between atoms: _23  and  _26
REMARK   12  A    between atoms: _26  and  _27
REMARK   13  A    between atoms: _27  and  _28
REMARK   14  A    between atoms: _28  and  _29
REMARK   15  A    between atoms: _29  and  _30
REMARK   16  A    between atoms: _34  and  _36
REMARK   17  A    between atoms: _36  and  _37
REMARK   18  A    between atoms: _36  and  _39
REMARK   19  A    between atoms: _39  and  _40
REMARK   20  A    between atoms: _46  and  _48
REMARK   21  A    between atoms: _48  and  _49
REMARK   22  A    between atoms: _48  and  _51
REMARK   23  A    between atoms: _51  and  _52
REMARK   24  A    between atoms: _55  and  _57
REMARK   25  A    between atoms: _57  and  _58
REMARK   26  A    between atoms: _57  and  _60
REMARK   27  A    between atoms: _60  and  _61
REMARK   28  A    between atoms: _61  and  _63
REMARK   29  A    between atoms: _63  and  ZN_291
REMARK   30  A    between atoms: _64  and  _66
REMARK   31  A    between atoms: _66  and  _67
REMARK   32  A    between atoms: _66  and  _69
REMARK   33  A    between atoms: _69  and  _70
REMARK   34  A    between atoms: _72  and  _74
REMARK   35  A    between atoms: _74  and  _75
REMARK   36  A    between atoms: _74  and  _77
REMARK   37  A    between atoms: _77  and  _78
REMARK   38  A    between atoms: _78  and  _79
REMARK   39  A    between atoms: _82  and  _84
REMARK   40  A    between atoms: _84  and  _85
REMARK   41  A    between atoms: _84  and  _87
REMARK   42  A    between atoms: _87  and  _88
REMARK   43  A    between atoms: _88  and  _89
REMARK   44  A    between atoms: _89  and  _91
REMARK   45  A    between atoms: _91  and  ZN_291
REMARK   46  A    between atoms: _92  and  _94
REMARK   47  A    between atoms: _94  and  _95
REMARK   48  A    between atoms: _98  and  _100
REMARK   49  A    between atoms: _100  and  _101
REMARK   50  A    between atoms: _100  and  _103
REMARK   51  A    between atoms: _103  and  _104
REMARK   52  A    between atoms: _106  and  _108
REMARK   53  A    between atoms: _108  and  _109
REMARK   54  A    between atoms: _108  and  _111
REMARK   55  A    between atoms: _111  and  _112
REMARK   56  A    between atoms: _115  and  _117
REMARK   57  A    between atoms: _117  and  _118
REMARK   58  A    between atoms: _117  and  _120
REMARK   59  A    between atoms: _120  and  _121
REMARK   60  A    between atoms: _124  and  _126
REMARK   61  A    between atoms: _126  and  _127
REMARK   62  A    between atoms: _126  and  _129
REMARK   63  A    between atoms: _129  and  _130
REMARK   64  A    between atoms: _133  and  _135
REMARK   65  A    between atoms: _135  and  _136
REMARK   66  A    between atoms: _135  and  _138
REMARK   67  A    between atoms: _138  and  _139
REMARK   68  A    between atoms: _142  and  _144
REMARK   69  A    between atoms: _144  and  _145
REMARK   70  A    between atoms: _144  and  _147
REMARK   71  A    between atoms: _147  and  _148
REMARK   72  A    between atoms: _151  and  _153
REMARK   73  A    between atoms: _153  and  _154
REMARK   74  A    between atoms: _153  and  _156
REMARK   75  A    between atoms: _156  and  _157
REMARK   76  A    between atoms: _160  and  _162
REMARK   77  A    between atoms: _162  and  _163
REMARK   78  A    between atoms: _162  and  _165
REMARK   79  A    between atoms: _165  and  _166
REMARK   80  A    between atoms: _168  and  _170
REMARK   81  A    between atoms: _170  and  _171
REMARK   82  A    between atoms: _170  and  _173
REMARK   83  A    between atoms: _176  and  _178
REMARK   84  A    between atoms: _178  and  _179
REMARK   85  A    between atoms: _178  and  _181
REMARK   86  A    between atoms: _181  and  _182
REMARK   87  A    between atoms: _182  and  _183
REMARK   88  A    between atoms: _186  and  _188
REMARK   89  A    between atoms: _188  and  _189
REMARK   90  A    between atoms: _188  and  _191
REMARK   91  A    between atoms: _191  and  _192
REMARK   92  A    between atoms: _195  and  _197
REMARK   93  A    between atoms: _197  and  _198
REMARK   94  A    between atoms: _197  and  _200
REMARK   95  A    between atoms: _200  and  _201
REMARK   96  A    between atoms: _204  and  _206
REMARK   97  A    between atoms: _206  and  _207
REMARK   98  A    between atoms: _206  and  _209
REMARK   99  A    between atoms: _209  and  _210
REMARK  100  A    between atoms: _215  and  _217
REMARK  101  A    between atoms: _217  and  _218
REMARK  102  A    between atoms: _217  and  _220
REMARK  103  A    between atoms: _220  and  _221
REMARK  104  A    between atoms: _226  and  _228
REMARK  105  A    between atoms: _228  and  _229
REMARK  106  A    between atoms: _228  and  _231
REMARK  107  A    between atoms: _231  and  _232
REMARK  108  A    between atoms: _235  and  _237
REMARK  109  A    between atoms: _237  and  _238
REMARK  110  A    between atoms: _237  and  _240
REMARK  111  A    between atoms: _240  and  _241
REMARK  112  A    between atoms: _243  and  _245
REMARK  113  A    between atoms: _245  and  _246
REMARK  114  A    between atoms: _245  and  _248
REMARK  115  A    between atoms: _248  and  _249
REMARK  116  A    between atoms: _255  and  _257
REMARK  117  A    between atoms: _257  and  _258
REMARK  118  A    between atoms: _257  and  _260
REMARK  119  A    between atoms: _260  and  _261
REMARK  120  A    between atoms: _271  and  _273
REMARK  121  A    between atoms: _273  and  _274
REMARK  122  A    between atoms: _273  and  _276
REMARK  123  A    between atoms: _276  and  _277
REMARK  124  A    between atoms: _281  and  ZN_291
REMARK  125  A    between atoms: _282  and  _284
REMARK  126  A    between atoms: _284  and  _285
REMARK  127  A    between atoms: _284  and  _287
REMARK  128  A    between atoms: _287  and  _288
REMARK                            x       y       z     vdW  Elec       q    Type
REMARK                         _______ _______ _______ _____ _____    ______ ____
ROOT
ATOM      1  O   HOH     1     -17.787 -21.698  16.587  0.00  0.00    +0.000 OA
ENDROOT
TORSDOF 0
REMARK  Name = ../refined-set-2016/3pb8/3pb8_pocket.pdb
REMARK  128 active torsions:
REMARK  status: ('A' for Active; 'I' for Inactive)
REMARK    1  A    between atoms: _1  and  _3
REMARK    2  A    between atoms: _3  and  _4
REMARK    3  A    between atoms: _3  and  _6
REMARK    4  A    between atoms: _6  and  _7
REMARK    5  A    between atoms: _12  and  _14
REMARK    6  A    between atoms: _14  and  _15
REMARK    7  A    between atoms: _14  and  _17
REMARK    8  A    between atoms: _17  and  _18
REMARK    9  A    between atoms: _21  and  _23
REMARK   10  A    between atoms: _23  and  _24
REMARK   11  A    between atoms: _23  and  _26
REMARK   12  A    between atoms: _26  and  _27
REMARK   13  A    between atoms: _27  and  _28
REMARK   14  A    between atoms: _28  and  _29
REMARK   15  A    between atoms: _29  and  _30
REMARK   16  A    between atoms: _34  and  _36
REMARK   17  A    between atoms: _36  and  _37
REMARK   18  A    between atoms: _36  and  _39
REMARK   19  A    between atoms: _39  and  _40
REMARK   20  A    between atoms: _46  and  _48
REMARK   21  A    between atoms: _48  and  _49
REMARK   22  A    between atoms: _48  and  _51
REMARK   23  A    between atoms: _51  and  _52
REMARK   24  A    between atoms: _55  and  _57
REMARK   25  A    between atoms: _57  and  _58
REMARK   26  A    between atoms: _57  and  _60
REMARK   27  A    between atoms: _60  and  _61
REMARK   28  A    between atoms: _61  and  _63
REMARK   29  A    between atoms: _63  and  ZN_291
REMARK   30  A    between atoms: _64  and  _66
REMARK   31  A    between atoms: _66  and  _67
REMARK   32  A    between atoms: _66  and  _69
REMARK   33  A    between atoms: _69  and  _70
REMARK   34  A    between atoms: _72  and  _74
REMARK   35  A    between atoms: _74  and  _75
REMARK   36  A    between atoms: _74  and  _77
REMARK   37  A    between atoms: _77  and  _78
REMARK   38  A    between atoms: _78  and  _79
REMARK   39  A    between atoms: _82  and  _84
REMARK   40  A    between atoms: _84  and  _85
REMARK   41  A    between atoms: _84  and  _87
REMARK   42  A    between atoms: _87  and  _88
REMARK   43  A    between atoms: _88  and  _89
REMARK   44  A    between atoms: _89  and  _91
REMARK   45  A    between atoms: _91  and  ZN_291
REMARK   46  A    between atoms: _92  and  _94
REMARK   47  A    between atoms: _94  and  _95
REMARK   48  A    between atoms: _98  and  _100
REMARK   49  A    between atoms: _100  and  _101
REMARK   50  A    between atoms: _100  and  _103
REMARK   51  A    between atoms: _103  and  _104
REMARK   52  A    between atoms: _106  and  _108
REMARK   53  A    between atoms: _108  and  _109
REMARK   54  A    between atoms: _108  and  _111
REMARK   55  A    between atoms: _111  and  _112
REMARK   56  A    between atoms: _115  and  _117
REMARK   57  A    between atoms: _117  and  _118
REMARK   58  A    between atoms: _117  and  _120
REMARK   59  A    between atoms: _120  and  _121
REMARK   60  A    between atoms: _124  and  _126
REMARK   61  A    between atoms: _126  and  _127
REMARK   62  A    between atoms: _126  and  _129
REMARK   63  A    between atoms: _129  and  _130
REMARK   64  A    between atoms: _133  and  _135
REMARK   65  A    between atoms: _135  and  _136
REMARK   66  A    between atoms: _135  and  _138
REMARK   67  A    between atoms: _138  and  _139
REMARK   68  A    between atoms: _142  and  _144
REMARK   69  A    between atoms: _144  and  _145
REMARK   70  A    between atoms: _144  and  _147
REMARK   71  A    between atoms: _147  and  _148
REMARK   72  A    between atoms: _151  and  _153
REMARK   73  A    between atoms: _153  and  _154
REMARK   74  A    between atoms: _153  and  _156
REMARK   75  A    between atoms: _156  and  _157
REMARK   76  A    between atoms: _160  and  _162
REMARK   77  A    between atoms: _162  and  _163
REMARK   78  A    between atoms: _162  and  _165
REMARK   79  A    between atoms: _165  and  _166
REMARK   80  A    between atoms: _168  and  _170
REMARK   81  A    between atoms: _170  and  _171
REMARK   82  A    between atoms: _170  and  _173
REMARK   83  A    between atoms: _176  and  _178
REMARK   84  A    between atoms: _178  and  _179
REMARK   85  A    between atoms: _178  and  _181
REMARK   86  A    between atoms: _181  and  _182
REMARK   87  A    between atoms: _182  and  _183
REMARK   88  A    between atoms: _186  and  _188
REMARK   89  A    between atoms: _188  and  _189
REMARK   90  A    between atoms: _188  and  _191
REMARK   91  A    between atoms: _191  and  _192
REMARK   92  A    between atoms: _195  and  _197
REMARK   93  A    between atoms: _197  and  _198
REMARK   94  A    between atoms: _197  and  _200
REMARK   95  A    between atoms: _200  and  _201
REMARK   96  A    between atoms: _204  and  _206
REMARK   97  A    between atoms: _206  and  _207
REMARK   98  A    between atoms: _206  and  _209
REMARK   99  A    between atoms: _209  and  _210
REMARK  100  A    between atoms: _215  and  _217
REMARK  101  A    between atoms: _217  and  _218
REMARK  102  A    between atoms: _217  and  _220
REMARK  103  A    between atoms: _220  and  _221
REMARK  104  A    between atoms: _226  and  _228
REMARK  105  A    between atoms: _228  and  _229
REMARK  106  A    between atoms: _228  and  _231
REMARK  107  A    between atoms: _231  and  _232
REMARK  108  A    between atoms: _235  and  _237
REMARK  109  A    between atoms: _237  and  _238
REMARK  110  A    between atoms: _237  and  _240
REMARK  111  A    between atoms: _240  and  _241
REMARK  112  A    between atoms: _243  and  _245
REMARK  113  A    between atoms: _245  and  _246
REMARK  114  A    between atoms: _245  and  _248
REMARK  115  A    between atoms: _248  and  _249
REMARK  116  A    between atoms: _255  and  _257
REMARK  117  A    between atoms: _257  and  _258
REMARK  118  A    between atoms: _257  and  _260
REMARK  119  A    between atoms: _260  and  _261
REMARK  120  A    between atoms: _271  and  _273
REMARK  121  A    between atoms: _273  and  _274
REMARK  122  A    between atoms: _273  and  _276
REMARK  123  A    between atoms: _276  and  _277
REMARK  124  A    between atoms: _281  and  ZN_291
REMARK  125  A    between atoms: _282  and  _284
REMARK  126  A    between atoms: _284  and  _285
REMARK  127  A    between atoms: _284  and  _287
REMARK  128  A    between atoms: _287  and  _288
REMARK                            x       y       z     vdW  Elec       q    Type
REMARK                         _______ _______ _______ _____ _____    ______ ____
ROOT
ATOM      1  O   HOH     1     -24.408 -13.365  24.588  0.00  0.00    +0.000 OA
ENDROOT
TORSDOF 0
REMARK  Name = ../refined-set-2016/3pb8/3pb8_pocket.pdb
REMARK  128 active torsions:
REMARK  status: ('A' for Active; 'I' for Inactive)
REMARK    1  A    between atoms: _1  and  _3
REMARK    2  A    between atoms: _3  and  _4
REMARK    3  A    between atoms: _3  and  _6
REMARK    4  A    between atoms: _6  and  _7
REMARK    5  A    between atoms: _12  and  _14
REMARK    6  A    between atoms: _14  and  _15
REMARK    7  A    between atoms: _14  and  _17
REMARK    8  A    between atoms: _17  and  _18
REMARK    9  A    between atoms: _21  and  _23
REMARK   10  A    between atoms: _23  and  _24
REMARK   11  A    between atoms: _23  and  _26
REMARK   12  A    between atoms: _26  and  _27
REMARK   13  A    between atoms: _27  and  _28
REMARK   14  A    between atoms: _28  and  _29
REMARK   15  A    between atoms: _29  and  _30
REMARK   16  A    between atoms: _34  and  _36
REMARK   17  A    between atoms: _36  and  _37
REMARK   18  A    between atoms: _36  and  _39
REMARK   19  A    between atoms: _39  and  _40
REMARK   20  A    between atoms: _46  and  _48
REMARK   21  A    between atoms: _48  and  _49
REMARK   22  A    between atoms: _48  and  _51
REMARK   23  A    between atoms: _51  and  _52
REMARK   24  A    between atoms: _55  and  _57
REMARK   25  A    between atoms: _57  and  _58
REMARK   26  A    between atoms: _57  and  _60
REMARK   27  A    between atoms: _60  and  _61
REMARK   28  A    between atoms: _61  and  _63
REMARK   29  A    between atoms: _63  and  ZN_291
REMARK   30  A    between atoms: _64  and  _66
REMARK   31  A    between atoms: _66  and  _67
REMARK   32  A    between atoms: _66  and  _69
REMARK   33  A    between atoms: _69  and  _70
REMARK   34  A    between atoms: _72  and  _74
REMARK   35  A    between atoms: _74  and  _75
REMARK   36  A    between atoms: _74  and  _77
REMARK   37  A    between atoms: _77  and  _78
REMARK   38  A    between atoms: _78  and  _79
REMARK   39  A    between atoms: _82  and  _84
REMARK   40  A    between atoms: _84  and  _85
REMARK   41  A    between atoms: _84  and  _87
REMARK   42  A    between atoms: _87  and  _88
REMARK   43  A    between atoms: _88  and  _89
REMARK   44  A    between atoms: _89  and  _91
REMARK   45  A    between atoms: _91  and  ZN_291
REMARK   46  A    between atoms: _92  and  _94
REMARK   47  A    between atoms: _94  and  _95
REMARK   48  A    between atoms: _98  and  _100
REMARK   49  A    between atoms: _100  and  _101
REMARK   50  A    between atoms: _100  and  _103
REMARK   51  A    between atoms: _103  and  _104
REMARK   52  A    between atoms: _106  and  _108
REMARK   53  A    between atoms: _108  and  _109
REMARK   54  A    between atoms: _108  and  _111
REMARK   55  A    between atoms: _111  and  _112
REMARK   56  A    between atoms: _115  and  _117
REMARK   57  A    between atoms: _117  and  _118
REMARK   58  A    between atoms: _117  and  _120
REMARK   59  A    between atoms: _120  and  _121
REMARK   60  A    between atoms: _124  and  _126
REMARK   61  A    between atoms: _126  and  _127
REMARK   62  A    between atoms: _126  and  _129
REMARK   63  A    between atoms: _129  and  _130
REMARK   64  A    between atoms: _133  and  _135
REMARK   65  A    between atoms: _135  and  _136
REMARK   66  A    between atoms: _135  and  _138
REMARK   67  A    between atoms: _138  and  _139
REMARK   68  A    between atoms: _142  and  _144
REMARK   69  A    between atoms: _144  and  _145
REMARK   70  A    between atoms: _144  and  _147
REMARK   71  A    between atoms: _147  and  _148
REMARK   72  A    between atoms: _151  and  _153
REMARK   73  A    between atoms: _153  and  _154
REMARK   74  A    between atoms: _153  and  _156
REMARK   75  A    between atoms: _156  and  _157
REMARK   76  A    between atoms: _160  and  _162
REMARK   77  A    between atoms: _162  and  _163
REMARK   78  A    between atoms: _162  and  _165
REMARK   79  A    between atoms: _165  and  _166
REMARK   80  A    between atoms: _168  and  _170
REMARK   81  A    between atoms: _170  and  _171
REMARK   82  A    between atoms: _170  and  _173
REMARK   83  A    between atoms: _176  and  _178
REMARK   84  A    between atoms: _178  and  _179
REMARK   85  A    between atoms: _178  and  _181
REMARK   86  A    between atoms: _181  and  _182
REMARK   87  A    between atoms: _182  and  _183
REMARK   88  A    between atoms: _186  and  _188
REMARK   89  A    between atoms: _188  and  _189
REMARK   90  A    between atoms: _188  and  _191
REMARK   91  A    between atoms: _191  and  _192
REMARK   92  A    between atoms: _195  and  _197
REMARK   93  A    between atoms: _197  and  _198
REMARK   94  A    between atoms: _197  and  _200
REMARK   95  A    between atoms: _200  and  _201
REMARK   96  A    between atoms: _204  and  _206
REMARK   97  A    between atoms: _206  and  _207
REMARK   98  A    between atoms: _206  and  _209
REMARK   99  A    between atoms: _209  and  _210
REMARK  100  A    between atoms: _215  and  _217
REMARK  101  A    between atoms: _217  and  _218
REMARK  102  A    between atoms: _217  and  _220
REMARK  103  A    between atoms: _220  and  _221
REMARK  104  A    between atoms: _226  and  _228
REMARK  105  A    between atoms: _228  and  _229
REMARK  106  A    between atoms: _228  and  _231
REMARK  107  A    between atoms: _231  and  _232
REMARK  108  A    between atoms: _235  and  _237
REMARK  109  A    between atoms: _237  and  _238
REMARK  110  A    between atoms: _237  and  _240
REMARK  111  A    between atoms: _240  and  _241
REMARK  112  A    between atoms: _243  and  _245
REMARK  113  A    between atoms: _245  and  _246
REMARK  114  A    between atoms: _245  and  _248
REMARK  115  A    between atoms: _248  and  _249
REMARK  116  A    between atoms: _255  and  _257
REMARK  117  A    between atoms: _257  and  _258
REMARK  118  A    between atoms: _257  and  _260
REMARK  119  A    between atoms: _260  and  _261
REMARK  120  A    between atoms: _271  and  _273
REMARK  121  A    between atoms: _273  and  _274
REMARK  122  A    between atoms: _273  and  _276
REMARK  123  A    between atoms: _276  and  _277
REMARK  124  A    between atoms: _281  and  ZN_291
REMARK  125  A    between atoms: _282  and  _284
REMARK  126  A    between atoms: _284  and  _285
REMARK  127  A    between atoms: _284  and  _287
REMARK  128  A    between atoms: _287  and  _288
REMARK                            x       y       z     vdW  Elec       q    Type
REMARK                         _______ _______ _______ _____ _____    ______ ____
ROOT
ATOM      1  O   HOH     1     -12.399 -15.747  19.846  0.00  0.00    +0.000 OA
ENDROOT
TORSDOF 0
