REMARK  Name = ../refined-set-2016/1atl/1atl_pocket.pdb
REMARK  139 active torsions:
REMARK  status: ('A' for Active; 'I' for Inactive)
REMARK    1  A    between atoms: _1  and  _3
REMARK    2  A    between atoms: _3  and  _4
REMARK    3  A    between atoms: _3  and  _6
REMARK    4  A    between atoms: _6  and  _7
REMARK    5  A    between atoms: _9  and  _11
REMARK    6  A    between atoms: _11  and  _12
REMARK    7  A    between atoms: _11  and  _14
REMARK    8  A    between atoms: _14  and  _15
REMARK    9  A    between atoms: _18  and  _20
REMARK   10  A    between atoms: _20  and  _21
REMARK   11  A    between atoms: _20  and  _23
REMARK   12  A    between atoms: _23  and  _24
REMARK   13  A    between atoms: _27  and  _29
REMARK   14  A    between atoms: _29  and  _30
REMARK   15  A    between atoms: _29  and  _32
REMARK   16  A    between atoms: _32  and  _33
REMARK   17  A    between atoms: _33  and  _34
REMARK   18  A    between atoms: _37  and  _39
REMARK   19  A    between atoms: _39  and  _40
REMARK   20  A    between atoms: _39  and  _42
REMARK   21  A    between atoms: _42  and  _43
REMARK   22  A    between atoms: _43  and  _44
REMARK   23  A    between atoms: _47  and  _49
REMARK   24  A    between atoms: _49  and  _50
REMARK   25  A    between atoms: _49  and  _52
REMARK   26  A    between atoms: _52  and  _53
REMARK   27  A    between atoms: _56  and  _58
REMARK   28  A    between atoms: _58  and  _59
REMARK   29  A    between atoms: _58  and  _61
REMARK   30  A    between atoms: _61  and  _62
REMARK   31  A    between atoms: _65  and  _67
REMARK   32  A    between atoms: _67  and  _68
REMARK   33  A    between atoms: _70  and  _72
REMARK   34  A    between atoms: _72  and  _73
REMARK   35  A    between atoms: _72  and  _75
REMARK   36  A    between atoms: _75  and  _76
REMARK   37  A    between atoms: _79  and  _81
REMARK   38  A    between atoms: _81  and  _82
REMARK   39  A    between atoms: _85  and  _87
REMARK   40  A    between atoms: _87  and  _88
REMARK   41  A    between atoms: _87  and  _90
REMARK   42  A    between atoms: _90  and  _91
REMARK   43  A    between atoms: _94  and  _96
REMARK   44  A    between atoms: _96  and  _97
REMARK   45  A    between atoms: _96  and  _99
REMARK   46  A    between atoms: _102  and  _104
REMARK   47  A    between atoms: _104  and  _105
REMARK   48  A    between atoms: _104  and  _107
REMARK   49  A    between atoms: _107  and  _108
REMARK   50  A    between atoms: _108  and  _109
REMARK   51  A    between atoms: _114  and  _116
REMARK   52  A    between atoms: _116  and  _117
REMARK   53  A    between atoms: _116  and  _119
REMARK   54  A    between atoms: _119  and  _120
REMARK   55  A    between atoms: _125  and  _127
REMARK   56  A    between atoms: _127  and  _128
REMARK   57  A    between atoms: _127  and  _130
REMARK   58  A    between atoms: _130  and  _131
REMARK   59  A    between atoms: _134  and  _136
REMARK   60  A    between atoms: _136  and  _137
REMARK   61  A    between atoms: _136  and  _139
REMARK   62  A    between atoms: _142  and  _144
REMARK   63  A    between atoms: _144  and  _145
REMARK   64  A    between atoms: _144  and  _147
REMARK   65  A    between atoms: _147  and  _148
REMARK   66  A    between atoms: _151  and  _153
REMARK   67  A    between atoms: _153  and  _154
REMARK   68  A    between atoms: _153  and  _156
REMARK   69  A    between atoms: _156  and  _157
REMARK   70  A    between atoms: _157  and  _158
REMARK   71  A    between atoms: _160  and  _162
REMARK   72  A    between atoms: _162  and  _163
REMARK   73  A    between atoms: _166  and  _168
REMARK   74  A    between atoms: _168  and  _169
REMARK   75  A    between atoms: _168  and  _171
REMARK   76  A    between atoms: _171  and  _172
REMARK   77  A    between atoms: _176  and  ZN_323
REMARK   78  A    between atoms: _177  and  _179
REMARK   79  A    between atoms: _179  and  _180
REMARK   80  A    between atoms: _179  and  _182
REMARK   81  A    between atoms: _182  and  _183
REMARK   82  A    between atoms: _183  and  _184
REMARK   83  A    between atoms: _187  and  _189
REMARK   84  A    between atoms: _189  and  _190
REMARK   85  A    between atoms: _189  and  _192
REMARK   86  A    between atoms: _192  and  _193
REMARK   87  A    between atoms: _197  and  ZN_323
REMARK   88  A    between atoms: _198  and  _200
REMARK   89  A    between atoms: _200  and  _201
REMARK   90  A    between atoms: _200  and  _203
REMARK   91  A    between atoms: _203  and  _204
REMARK   92  A    between atoms: _208  and  ZN_323
REMARK   93  A    between atoms: _209  and  _211
REMARK   94  A    between atoms: _211  and  _212
REMARK   95  A    between atoms: _211  and  _214
REMARK   96  A    between atoms: _214  and  _215
REMARK   97  A    between atoms: _218  and  _220
REMARK   98  A    between atoms: _220  and  _221
REMARK   99  A    between atoms: _220  and  _223
REMARK  100  A    between atoms: _223  and  _224
REMARK  101  A    between atoms: _227  and  _229
REMARK  102  A    between atoms: _229  and  _230
REMARK  103  A    between atoms: _229  and  _232
REMARK  104  A    between atoms: _234  and  _236
REMARK  105  A    between atoms: _236  and  _237
REMARK  106  A    between atoms: _236  and  _239
REMARK  107  A    between atoms: _239  and  _240
REMARK  108  A    between atoms: _243  and  _245
REMARK  109  A    between atoms: _245  and  _246
REMARK  110  A    between atoms: _245  and  _248
REMARK  111  A    between atoms: _248  and  _249
REMARK  112  A    between atoms: _249  and  _250
REMARK  113  A    between atoms: _252  and  _254
REMARK  114  A    between atoms: _254  and  _255
REMARK  115  A    between atoms: _254  and  _257
REMARK  116  A    between atoms: _257  and  _258
REMARK  117  A    between atoms: _258  and  _259
REMARK  118  A    between atoms: _259  and  _260
REMARK  119  A    between atoms: _270  and  _271
REMARK  120  A    between atoms: _276  and  _278
REMARK  121  A    between atoms: _278  and  _279
REMARK  122  A    between atoms: _281  and  _283
REMARK  123  A    between atoms: _283  and  _284
REMARK  124  A    between atoms: _283  and  _286
REMARK  125  A    between atoms: _286  and  _287
REMARK  126  A    between atoms: _290  and  _292
REMARK  127  A    between atoms: _292  and  _293
REMARK  128  A    between atoms: _292  and  _295
REMARK  129  A    between atoms: _295  and  _296
REMARK  130  A    between atoms: _299  and  _301
REMARK  131  A    between atoms: _301  and  _302
REMARK  132  A    between atoms: _301  and  _304
REMARK  133  A    between atoms: _304  and  _305
REMARK  134  A    between atoms: _310  and  _311
REMARK  135  A    between atoms: _313  and  _315
REMARK  136  A    between atoms: _315  and  _316
REMARK  137  A    between atoms: _315  and  _318
REMARK  138  A    between atoms: _318  and  _319
REMARK  139  A    between atoms: _319  and  _320
REMARK                            x       y       z     vdW  Elec       q    Type
REMARK                         _______ _______ _______ _____ _____    ______ ____
ROOT
ATOM      1  CA  SER A   1      -4.718  30.433  55.593  0.00  0.00    +0.163 C 
ENDROOT
BRANCH   1   2
ATOM      2  N   SER A   1      -4.634  29.670  56.838  0.00  0.00    -0.237 NA
ATOM      3  H   SER A   1      -4.389  28.661  56.788  0.00  0.00    +0.142 HD
ENDBRANCH   1   2
BRANCH   1   4
ATOM      4  CB  SER A   1      -5.921  31.347  55.395  0.00  0.00    +0.227 C 
ATOM      5  OG  SER A   1      -5.762  32.477  54.932  0.00  0.00    -0.287 OA
ENDBRANCH   1   4
BRANCH   1   6
ATOM      6  C   SER A   1      -4.528  29.510  54.386  0.00  0.00    +0.162 C 
BRANCH   6   7
ATOM      7  O   SER A   1      -5.328  28.349  54.501  0.00  0.00    -0.380 OA
ATOM      8  H   SER A   1      -5.075  27.855  55.321  0.00  0.00    +0.211 HD
ENDBRANCH   6   7
ENDBRANCH   1   6
TORSDOF 4
REMARK  Name = ../refined-set-2016/1atl/1atl_pocket.pdb
REMARK  139 active torsions:
REMARK  status: ('A' for Active; 'I' for Inactive)
REMARK    1  A    between atoms: _1  and  _3
REMARK    2  A    between atoms: _3  and  _4
REMARK    3  A    between atoms: _3  and  _6
REMARK    4  A    between atoms: _6  and  _7
REMARK    5  A    between atoms: _9  and  _11
REMARK    6  A    between atoms: _11  and  _12
REMARK    7  A    between atoms: _11  and  _14
REMARK    8  A    between atoms: _14  and  _15
REMARK    9  A    between atoms: _18  and  _20
REMARK   10  A    between atoms: _20  and  _21
REMARK   11  A    between atoms: _20  and  _23
REMARK   12  A    between atoms: _23  and  _24
REMARK   13  A    between atoms: _27  and  _29
REMARK   14  A    between atoms: _29  and  _30
REMARK   15  A    between atoms: _29  and  _32
REMARK   16  A    between atoms: _32  and  _33
REMARK   17  A    between atoms: _33  and  _34
REMARK   18  A    between atoms: _37  and  _39
REMARK   19  A    between atoms: _39  and  _40
REMARK   20  A    between atoms: _39  and  _42
REMARK   21  A    between atoms: _42  and  _43
REMARK   22  A    between atoms: _43  and  _44
REMARK   23  A    between atoms: _47  and  _49
REMARK   24  A    between atoms: _49  and  _50
REMARK   25  A    between atoms: _49  and  _52
REMARK   26  A    between atoms: _52  and  _53
REMARK   27  A    between atoms: _56  and  _58
REMARK   28  A    between atoms: _58  and  _59
REMARK   29  A    between atoms: _58  and  _61
REMARK   30  A    between atoms: _61  and  _62
REMARK   31  A    between atoms: _65  and  _67
REMARK   32  A    between atoms: _67  and  _68
REMARK   33  A    between atoms: _70  and  _72
REMARK   34  A    between atoms: _72  and  _73
REMARK   35  A    between atoms: _72  and  _75
REMARK   36  A    between atoms: _75  and  _76
REMARK   37  A    between atoms: _79  and  _81
REMARK   38  A    between atoms: _81  and  _82
REMARK   39  A    between atoms: _85  and  _87
REMARK   40  A    between atoms: _87  and  _88
REMARK   41  A    between atoms: _87  and  _90
REMARK   42  A    between atoms: _90  and  _91
REMARK   43  A    between atoms: _94  and  _96
REMARK   44  A    between atoms: _96  and  _97
REMARK   45  A    between atoms: _96  and  _99
REMARK   46  A    between atoms: _102  and  _104
REMARK   47  A    between atoms: _104  and  _105
REMARK   48  A    between atoms: _104  and  _107
REMARK   49  A    between atoms: _107  and  _108
REMARK   50  A    between atoms: _108  and  _109
REMARK   51  A    between atoms: _114  and  _116
REMARK   52  A    between atoms: _116  and  _117
REMARK   53  A    between atoms: _116  and  _119
REMARK   54  A    between atoms: _119  and  _120
REMARK   55  A    between atoms: _125  and  _127
REMARK   56  A    between atoms: _127  and  _128
REMARK   57  A    between atoms: _127  and  _130
REMARK   58  A    between atoms: _130  and  _131
REMARK   59  A    between atoms: _134  and  _136
REMARK   60  A    between atoms: _136  and  _137
REMARK   61  A    between atoms: _136  and  _139
REMARK   62  A    between atoms: _142  and  _144
REMARK   63  A    between atoms: _144  and  _145
REMARK   64  A    between atoms: _144  and  _147
REMARK   65  A    between atoms: _147  and  _148
REMARK   66  A    between atoms: _151  and  _153
REMARK   67  A    between atoms: _153  and  _154
REMARK   68  A    between atoms: _153  and  _156
REMARK   69  A    between atoms: _156  and  _157
REMARK   70  A    between atoms: _157  and  _158
REMARK   71  A    between atoms: _160  and  _162
REMARK   72  A    between atoms: _162  and  _163
REMARK   73  A    between atoms: _166  and  _168
REMARK   74  A    between atoms: _168  and  _169
REMARK   75  A    between atoms: _168  and  _171
REMARK   76  A    between atoms: _171  and  _172
REMARK   77  A    between atoms: _176  and  ZN_323
REMARK   78  A    between atoms: _177  and  _179
REMARK   79  A    between atoms: _179  and  _180
REMARK   80  A    between atoms: _179  and  _182
REMARK   81  A    between atoms: _182  and  _183
REMARK   82  A    between atoms: _183  and  _184
REMARK   83  A    between atoms: _187  and  _189
REMARK   84  A    between atoms: _189  and  _190
REMARK   85  A    between atoms: _189  and  _192
REMARK   86  A    between atoms: _192  and  _193
REMARK   87  A    between atoms: _197  and  ZN_323
REMARK   88  A    between atoms: _198  and  _200
REMARK   89  A    between atoms: _200  and  _201
REMARK   90  A    between atoms: _200  and  _203
REMARK   91  A    between atoms: _203  and  _204
REMARK   92  A    between atoms: _208  and  ZN_323
REMARK   93  A    between atoms: _209  and  _211
REMARK   94  A    between atoms: _211  and  _212
REMARK   95  A    between atoms: _211  and  _214
REMARK   96  A    between atoms: _214  and  _215
REMARK   97  A    between atoms: _218  and  _220
REMARK   98  A    between atoms: _220  and  _221
REMARK   99  A    between atoms: _220  and  _223
REMARK  100  A    between atoms: _223  and  _224
REMARK  101  A    between atoms: _227  and  _229
REMARK  102  A    between atoms: _229  and  _230
REMARK  103  A    between atoms: _229  and  _232
REMARK  104  A    between atoms: _234  and  _236
REMARK  105  A    between atoms: _236  and  _237
REMARK  106  A    between atoms: _236  and  _239
REMARK  107  A    between atoms: _239  and  _240
REMARK  108  A    between atoms: _243  and  _245
REMARK  109  A    between atoms: _245  and  _246
REMARK  110  A    between atoms: _245  and  _248
REMARK  111  A    between atoms: _248  and  _249
REMARK  112  A    between atoms: _249  and  _250
REMARK  113  A    between atoms: _252  and  _254
REMARK  114  A    between atoms: _254  and  _255
REMARK  115  A    between atoms: _254  and  _257
REMARK  116  A    between atoms: _257  and  _258
REMARK  117  A    between atoms: _258  and  _259
REMARK  118  A    between atoms: _259  and  _260
REMARK  119  A    between atoms: _270  and  _271
REMARK  120  A    between atoms: _276  and  _278
REMARK  121  A    between atoms: _278  and  _279
REMARK  122  A    between atoms: _281  and  _283
REMARK  123  A    between atoms: _283  and  _284
REMARK  124  A    between atoms: _283  and  _286
REMARK  125  A    between atoms: _286  and  _287
REMARK  126  A    between atoms: _290  and  _292
REMARK  127  A    between atoms: _292  and  _293
REMARK  128  A    between atoms: _292  and  _295
REMARK  129  A    between atoms: _295  and  _296
REMARK  130  A    between atoms: _299  and  _301
REMARK  131  A    between atoms: _301  and  _302
REMARK  132  A    between atoms: _301  and  _304
REMARK  133  A    between atoms: _304  and  _305
REMARK  134  A    between atoms: _310  and  _311
REMARK  135  A    between atoms: _313  and  _315
REMARK  136  A    between atoms: _315  and  _316
REMARK  137  A    between atoms: _315  and  _318
REMARK  138  A    between atoms: _318  and  _319
REMARK  139  A    between atoms: _319  and  _320
REMARK                            x       y       z     vdW  Elec       q    Type
REMARK                         _______ _______ _______ _____ _____    ______ ____
ROOT
ATOM      1  C   GLU A   4      -0.514  22.703  52.304  0.00  0.00    +0.241 C 
ATOM      2  N   THR A   5      -1.112  23.808  52.742  0.00  0.00    -0.295 N 
ATOM      3  H   THR A   5      -1.243  23.941  53.765  0.00  0.00    +0.150 HD
ATOM      4  O   GLU A   4      -0.294  22.492  51.111  0.00  0.00    -0.273 OA
ENDROOT
BRANCH   2   5
ATOM      5  CA  THR A   5      -1.591  24.842  51.823  0.00  0.00    +0.176 C 
BRANCH   5   6
ATOM      6  C   THR A   5      -0.437  25.671  51.263  0.00  0.00    +0.243 C 
ATOM      7  O   THR A   5       0.347  26.259  52.019  0.00  0.00    -0.273 OA
ATOM      8  N   LEU A   6      -0.349  25.717  49.934  0.00  0.00    -0.297 N 
ATOM      9  H   LEU A   6      -1.052  25.200  49.368  0.00  0.00    +0.150 HD
BRANCH   8  10
ATOM     10  CA  LEU A   6       0.698  26.467  49.241  0.00  0.00    +0.149 C 
BRANCH  10  11
ATOM     11  C   LEU A   6       0.227  27.857  48.825  0.00  0.00    +0.241 C 
ATOM     12  N   GLY A   7      -1.086  28.023  48.734  0.00  0.00    -0.295 N 
ATOM     13  H   GLY A   7      -1.716  27.223  48.944  0.00  0.00    +0.150 HD
ATOM     14  O   LEU A   6       1.043  28.747  48.579  0.00  0.00    -0.273 OA
BRANCH  12  15
ATOM     15  CA  GLY A   7      -1.660  29.298  48.348  0.00  0.00    +0.176 C 
BRANCH  15  16
ATOM     16  C   GLY A   7      -3.167  29.289  48.526  0.00  0.00    +0.243 C 
ATOM     17  O   GLY A   7      -3.747  28.243  48.820  0.00  0.00    -0.273 OA
ATOM     18  N   LEU A   8      -3.790  30.455  48.365  0.00  0.00    -0.297 N 
ATOM     19  H   LEU A   8      -3.221  31.289  48.116  0.00  0.00    +0.150 HD
BRANCH  18  20
ATOM     20  CA  LEU A   8      -5.229  30.620  48.520  0.00  0.00    +0.149 C 
BRANCH  20  21
ATOM     21  C   LEU A   8      -5.661  31.939  47.865  0.00  0.00    +0.241 C 
ATOM     22  O   LEU A   8      -4.980  32.954  48.014  0.00  0.00    -0.273 OA
ATOM     23  N   ALA A   9      -6.786  31.930  47.156  0.00  0.00    -0.298 N 
ATOM     24  H   ALA A   9      -7.314  31.039  47.061  0.00  0.00    +0.150 HD
BRANCH  23  25
ATOM     25  CA  ALA A   9      -7.306  33.135  46.504  0.00  0.00    +0.137 C 
ATOM     26  CB  ALA A   9      -6.547  33.405  45.211  0.00  0.00    +0.030 C 
BRANCH  25  27
ATOM     27  C   ALA A   9      -8.799  33.006  46.201  0.00  0.00    +0.227 C 
ATOM     28  O   ALA A   9      -9.265  31.929  45.830  0.00  0.00    -0.286 OA
ENDBRANCH  25  27
ENDBRANCH  23  25
ENDBRANCH  20  21
BRANCH  20  29
ATOM     29  CB  LEU A   8      -5.588  30.658  50.016  0.00  0.00    +0.029 C 
BRANCH  29  30
ATOM     30  CG  LEU A   8      -7.081  30.611  50.339  0.00  0.00    +0.002 C 
ATOM     31  CD2 LEU A   8      -7.337  30.777  51.819  0.00  0.00    +0.000 C 
ATOM     32  CD1 LEU A   8      -7.622  29.283  49.853  0.00  0.00    +0.000 C 
ENDBRANCH  29  30
ENDBRANCH  20  29
ENDBRANCH  18  20
ENDBRANCH  15  16
ENDBRANCH  12  15
ENDBRANCH  10  11
BRANCH  10  33
ATOM     33  CB  LEU A   6       1.169  25.704  48.006  0.00  0.00    +0.029 C 
BRANCH  33  34
ATOM     34  CG  LEU A   6       1.716  24.306  48.287  0.00  0.00    +0.002 C 
ATOM     35  CD2 LEU A   6       2.793  24.379  49.341  0.00  0.00    +0.000 C 
ATOM     36  CD1 LEU A   6       2.252  23.721  46.993  0.00  0.00    +0.000 C 
ENDBRANCH  33  34
ENDBRANCH  10  33
ENDBRANCH   8  10
ENDBRANCH   5   6
BRANCH   5  37
ATOM     37  CB  THR A   5      -2.591  25.789  52.517  0.00  0.00    +0.137 C 
ATOM     38  CG2 THR A   5      -3.232  26.733  51.498  0.00  0.00    +0.034 C 
BRANCH  37  39
ATOM     39  OG1 THR A   5      -3.618  25.019  53.150  0.00  0.00    -0.382 OA
ATOM     40  HG1 THR A   5      -4.259  25.628  53.595  0.00  0.00    +0.210 HD
ENDBRANCH  37  39
ENDBRANCH   5  37
ENDBRANCH   2   5
BRANCH   1  41
ATOM     41  CA  GLU A   4      -0.071  21.693  53.362  0.00  0.00    +0.149 C 
BRANCH  41  43
ATOM     42  C   GLU A   3      -2.246  21.707  54.508  0.00  0.00    +0.241 C 
ATOM     43  N   GLU A   4      -0.918  21.717  54.550  0.00  0.00    -0.297 N 
ATOM     44  H   GLU A   4      -0.456  21.743  55.482  0.00  0.00    +0.150 HD
ATOM     45  O   GLU A   3      -2.896  21.716  53.462  0.00  0.00    -0.273 OA
BRANCH  42  46
ATOM     46  CA  GLU A   3      -2.928  21.719  55.865  0.00  0.00    +0.149 C 
BRANCH  46  49
ATOM     47  C   ASP A   2      -1.901  23.507  57.130  0.00  0.00    +0.241 C 
ATOM     48  O   ASP A   2      -0.820  22.912  57.105  0.00  0.00    -0.273 OA
ATOM     49  N   GLU A   3      -2.985  23.001  56.552  0.00  0.00    -0.297 N 
ATOM     50  H   GLU A   3      -3.882  23.526  56.591  0.00  0.00    +0.150 HD
BRANCH  47  51
ATOM     51  CA  ASP A   2      -2.046  24.849  57.884  0.00  0.00    +0.160 C 
BRANCH  51  53
ATOM     52  C   LEU A   1      -0.215  26.055  56.698  0.00  0.00    +0.238 C 
ATOM     53  N   ASP A   2      -1.338  26.037  57.410  0.00  0.00    -0.297 N 
ATOM     54  H   ASP A   2      -1.753  26.959  57.654  0.00  0.00    +0.150 HD
ATOM     55  O   LEU A   1       0.360  25.055  56.282  0.00  0.00    -0.274 OA
BRANCH  52  56
ATOM     56  CA  LEU A   1       0.300  27.446  56.358  0.00  0.00    +0.145 C 
BRANCH  56  57
ATOM     57  N   LEU A   1       1.752  27.459  56.311  0.00  0.00    -0.238 NA
ATOM     58  H   LEU A   1       2.227  27.590  55.395  0.00  0.00    +0.142 HD
ENDBRANCH  56  57
BRANCH  56  59
ATOM     59  CB  LEU A   1      -0.292  27.931  55.022  0.00  0.00    +0.026 C 
BRANCH  59  60
ATOM     60  CG  LEU A   1       0.007  29.383  54.621  0.00  0.00    +0.002 C 
ATOM     61  CD2 LEU A   1      -0.668  30.359  55.583  0.00  0.00    +0.000 C 
ATOM     62  CD1 LEU A   1      -0.419  29.642  53.179  0.00  0.00    +0.000 C 
ENDBRANCH  59  60
ENDBRANCH  56  59
ENDBRANCH  52  56
ENDBRANCH  51  53
BRANCH  51  63
ATOM     63  CB  ASP A   2      -3.526  25.203  58.091  0.00  0.00    +0.143 C 
BRANCH  63  64
ATOM     64  CG  ASP A   2      -4.151  25.898  56.859  0.00  0.00    +0.367 C 
ATOM     65  OD2 ASP A   2      -5.221  26.532  57.006  0.00  0.00    -0.246 OA
ATOM     66  OD1 ASP A   2      -3.585  25.811  55.743  0.00  0.00    -0.246 OA
ENDBRANCH  63  64
ENDBRANCH  51  63
ENDBRANCH  47  51
ENDBRANCH  46  49
BRANCH  46  67
ATOM     67  CB  GLU A   3      -4.320  21.103  55.797  0.00  0.00    +0.041 C 
BRANCH  67  68
ATOM     68  CG  GLU A   3      -4.869  20.808  57.191  0.00  0.00    +0.116 C 
BRANCH  68  69
ATOM     69  CD  GLU A   3      -6.017  19.805  57.200  0.00  0.00    +0.365 C 
ATOM     70  OE2 GLU A   3      -7.016  20.060  57.925  0.00  0.00    -0.246 OA
ATOM     71  OE1 GLU A   3      -5.916  18.760  56.496  0.00  0.00    -0.246 OA
ENDBRANCH  68  69
ENDBRANCH  67  68
ENDBRANCH  46  67
ENDBRANCH  42  46
ENDBRANCH  41  43
BRANCH  41  72
ATOM     72  CB  GLU A   4      -0.030  20.279  52.748  0.00  0.00    +0.041 C 
BRANCH  72  73
ATOM     73  CG  GLU A   4       0.460  19.147  53.681  0.00  0.00    +0.116 C 
BRANCH  73  74
ATOM     74  CD  GLU A   4      -0.625  18.617  54.629  0.00  0.00    +0.365 C 
ATOM     75  OE2 GLU A   4      -0.458  18.773  55.869  0.00  0.00    -0.246 OA
ATOM     76  OE1 GLU A   4      -1.637  18.043  54.141  0.00  0.00    -0.246 OA
ENDBRANCH  73  74
ENDBRANCH  72  73
ENDBRANCH  41  72
ENDBRANCH   1  41
TORSDOF 34
REMARK  Name = ../refined-set-2016/1atl/1atl_pocket.pdb
REMARK  139 active torsions:
REMARK  status: ('A' for Active; 'I' for Inactive)
REMARK    1  A    between atoms: _1  and  _3
REMARK    2  A    between atoms: _3  and  _4
REMARK    3  A    between atoms: _3  and  _6
REMARK    4  A    between atoms: _6  and  _7
REMARK    5  A    between atoms: _9  and  _11
REMARK    6  A    between atoms: _11  and  _12
REMARK    7  A    between atoms: _11  and  _14
REMARK    8  A    between atoms: _14  and  _15
REMARK    9  A    between atoms: _18  and  _20
REMARK   10  A    between atoms: _20  and  _21
REMARK   11  A    between atoms: _20  and  _23
REMARK   12  A    between atoms: _23  and  _24
REMARK   13  A    between atoms: _27  and  _29
REMARK   14  A    between atoms: _29  and  _30
REMARK   15  A    between atoms: _29  and  _32
REMARK   16  A    between atoms: _32  and  _33
REMARK   17  A    between atoms: _33  and  _34
REMARK   18  A    between atoms: _37  and  _39
REMARK   19  A    between atoms: _39  and  _40
REMARK   20  A    between atoms: _39  and  _42
REMARK   21  A    between atoms: _42  and  _43
REMARK   22  A    between atoms: _43  and  _44
REMARK   23  A    between atoms: _47  and  _49
REMARK   24  A    between atoms: _49  and  _50
REMARK   25  A    between atoms: _49  and  _52
REMARK   26  A    between atoms: _52  and  _53
REMARK   27  A    between atoms: _56  and  _58
REMARK   28  A    between atoms: _58  and  _59
REMARK   29  A    between atoms: _58  and  _61
REMARK   30  A    between atoms: _61  and  _62
REMARK   31  A    between atoms: _65  and  _67
REMARK   32  A    between atoms: _67  and  _68
REMARK   33  A    between atoms: _70  and  _72
REMARK   34  A    between atoms: _72  and  _73
REMARK   35  A    between atoms: _72  and  _75
REMARK   36  A    between atoms: _75  and  _76
REMARK   37  A    between atoms: _79  and  _81
REMARK   38  A    between atoms: _81  and  _82
REMARK   39  A    between atoms: _85  and  _87
REMARK   40  A    between atoms: _87  and  _88
REMARK   41  A    between atoms: _87  and  _90
REMARK   42  A    between atoms: _90  and  _91
REMARK   43  A    between atoms: _94  and  _96
REMARK   44  A    between atoms: _96  and  _97
REMARK   45  A    between atoms: _96  and  _99
REMARK   46  A    between atoms: _102  and  _104
REMARK   47  A    between atoms: _104  and  _105
REMARK   48  A    between atoms: _104  and  _107
REMARK   49  A    between atoms: _107  and  _108
REMARK   50  A    between atoms: _108  and  _109
REMARK   51  A    between atoms: _114  and  _116
REMARK   52  A    between atoms: _116  and  _117
REMARK   53  A    between atoms: _116  and  _119
REMARK   54  A    between atoms: _119  and  _120
REMARK   55  A    between atoms: _125  and  _127
REMARK   56  A    between atoms: _127  and  _128
REMARK   57  A    between atoms: _127  and  _130
REMARK   58  A    between atoms: _130  and  _131
REMARK   59  A    between atoms: _134  and  _136
REMARK   60  A    between atoms: _136  and  _137
REMARK   61  A    between atoms: _136  and  _139
REMARK   62  A    between atoms: _142  and  _144
REMARK   63  A    between atoms: _144  and  _145
REMARK   64  A    between atoms: _144  and  _147
REMARK   65  A    between atoms: _147  and  _148
REMARK   66  A    between atoms: _151  and  _153
REMARK   67  A    between atoms: _153  and  _154
REMARK   68  A    between atoms: _153  and  _156
REMARK   69  A    between atoms: _156  and  _157
REMARK   70  A    between atoms: _157  and  _158
REMARK   71  A    between atoms: _160  and  _162
REMARK   72  A    between atoms: _162  and  _163
REMARK   73  A    between atoms: _166  and  _168
REMARK   74  A    between atoms: _168  and  _169
REMARK   75  A    between atoms: _168  and  _171
REMARK   76  A    between atoms: _171  and  _172
REMARK   77  A    between atoms: _176  and  ZN_323
REMARK   78  A    between atoms: _177  and  _179
REMARK   79  A    between atoms: _179  and  _180
REMARK   80  A    between atoms: _179  and  _182
REMARK   81  A    between atoms: _182  and  _183
REMARK   82  A    between atoms: _183  and  _184
REMARK   83  A    between atoms: _187  and  _189
REMARK   84  A    between atoms: _189  and  _190
REMARK   85  A    between atoms: _189  and  _192
REMARK   86  A    between atoms: _192  and  _193
REMARK   87  A    between atoms: _197  and  ZN_323
REMARK   88  A    between atoms: _198  and  _200
REMARK   89  A    between atoms: _200  and  _201
REMARK   90  A    between atoms: _200  and  _203
REMARK   91  A    between atoms: _203  and  _204
REMARK   92  A    between atoms: _208  and  ZN_323
REMARK   93  A    between atoms: _209  and  _211
REMARK   94  A    between atoms: _211  and  _212
REMARK   95  A    between atoms: _211  and  _214
REMARK   96  A    between atoms: _214  and  _215
REMARK   97  A    between atoms: _218  and  _220
REMARK   98  A    between atoms: _220  and  _221
REMARK   99  A    between atoms: _220  and  _223
REMARK  100  A    between atoms: _223  and  _224
REMARK  101  A    between atoms: _227  and  _229
REMARK  102  A    between atoms: _229  and  _230
REMARK  103  A    between atoms: _229  and  _232
REMARK  104  A    between atoms: _234  and  _236
REMARK  105  A    between atoms: _236  and  _237
REMARK  106  A    between atoms: _236  and  _239
REMARK  107  A    between atoms: _239  and  _240
REMARK  108  A    between atoms: _243  and  _245
REMARK  109  A    between atoms: _245  and  _246
REMARK  110  A    between atoms: _245  and  _248
REMARK  111  A    between atoms: _248  and  _249
REMARK  112  A    between atoms: _249  and  _250
REMARK  113  A    between atoms: _252  and  _254
REMARK  114  A    between atoms: _254  and  _255
REMARK  115  A    between atoms: _254  and  _257
REMARK  116  A    between atoms: _257  and  _258
REMARK  117  A    between atoms: _258  and  _259
REMARK  118  A    between atoms: _259  and  _260
REMARK  119  A    between atoms: _270  and  _271
REMARK  120  A    between atoms: _276  and  _278
REMARK  121  A    between atoms: _278  and  _279
REMARK  122  A    between atoms: _281  and  _283
REMARK  123  A    between atoms: _283  and  _284
REMARK  124  A    between atoms: _283  and  _286
REMARK  125  A    between atoms: _286  and  _287
REMARK  126  A    between atoms: _290  and  _292
REMARK  127  A    between atoms: _292  and  _293
REMARK  128  A    between atoms: _292  and  _295
REMARK  129  A    between atoms: _295  and  _296
REMARK  130  A    between atoms: _299  and  _301
REMARK  131  A    between atoms: _301  and  _302
REMARK  132  A    between atoms: _301  and  _304
REMARK  133  A    between atoms: _304  and  _305
REMARK  134  A    between atoms: _310  and  _311
REMARK  135  A    between atoms: _313  and  _315
REMARK  136  A    between atoms: _315  and  _316
REMARK  137  A    between atoms: _315  and  _318
REMARK  138  A    between atoms: _318  and  _319
REMARK  139  A    between atoms: _319  and  _320
REMARK                            x       y       z     vdW  Elec       q    Type
REMARK                         _______ _______ _______ _____ _____    ______ ____
ROOT
ATOM      1  CA  VAL A   2       1.283  32.493  48.282  0.00  0.00    +0.148 C 
ENDROOT
BRANCH   1   3
ATOM      2  C   ILE A   1      -0.927  33.355  48.815  0.00  0.00    +0.238 C 
ATOM      3  N   VAL A   2       0.388  33.512  48.795  0.00  0.00    -0.297 N 
ATOM      4  H   VAL A   2       0.793  34.398  49.160  0.00  0.00    +0.150 HD
ATOM      5  O   ILE A   1      -1.498  32.369  48.352  0.00  0.00    -0.274 OA
BRANCH   2   6
ATOM      6  CA  ILE A   1      -1.719  34.521  49.370  0.00  0.00    +0.145 C 
BRANCH   6   7
ATOM      7  N   ILE A   1      -2.858  34.739  48.491  0.00  0.00    -0.238 NA
ATOM      8  H   ILE A   1      -3.496  33.947  48.273  0.00  0.00    +0.142 HD
ENDBRANCH   6   7
BRANCH   6   9
ATOM      9  CB  ILE A   1      -2.119  34.263  50.853  0.00  0.00    +0.025 C 
ATOM     10  CG2 ILE A   1      -2.832  35.487  51.430  0.00  0.00    +0.002 C 
BRANCH   9  11
ATOM     11  CG1 ILE A   1      -3.005  33.030  50.979  0.00  0.00    +0.002 C 
ATOM     12  CD1 ILE A   1      -3.480  32.787  52.393  0.00  0.00    +0.000 C 
ENDBRANCH   9  11
ENDBRANCH   6   9
ENDBRANCH   2   6
ENDBRANCH   1   3
BRANCH   1  13
ATOM     13  C   VAL A   2       2.362  32.225  49.323  0.00  0.00    +0.241 C 
ATOM     14  O   VAL A   2       2.906  33.151  49.920  0.00  0.00    -0.273 OA
ATOM     15  N   GLN A   3       2.633  30.959  49.594  0.00  0.00    -0.298 N 
ATOM     16  H   GLN A   3       2.105  30.199  49.120  0.00  0.00    +0.150 HD
BRANCH  15  17
ATOM     17  CA  GLN A   3       3.672  30.636  50.558  0.00  0.00    +0.137 C 
BRANCH  17  18
ATOM     18  C   GLN A   3       4.999  30.440  49.820  0.00  0.00    +0.227 C 
ATOM     19  O   GLN A   3       5.032  29.801  48.773  0.00  0.00    -0.286 OA
ENDBRANCH  17  18
BRANCH  17  20
ATOM     20  CB  GLN A   3       3.320  29.368  51.329  0.00  0.00    +0.037 C 
BRANCH  20  21
ATOM     21  CG  GLN A   3       4.295  29.095  52.452  0.00  0.00    +0.087 C 
BRANCH  21  22
ATOM     22  CD  GLN A   3       4.306  27.659  52.877  0.00  0.00    +0.219 C 
ATOM     23  NE2 GLN A   3       3.136  27.124  53.191  0.00  0.00    -0.329 N 
ATOM     24 HE21 GLN A   3       3.080  26.125  53.473  0.00  0.00    +0.145 HD
ATOM     25 HE22 GLN A   3       2.273  27.703  53.156  0.00  0.00    +0.145 HD
ATOM     26  OE1 GLN A   3       5.355  27.024  52.901  0.00  0.00    -0.275 OA
ENDBRANCH  21  22
ENDBRANCH  20  21
ENDBRANCH  17  20
ENDBRANCH  15  17
ENDBRANCH   1  13
BRANCH   1  27
ATOM     27  CB  VAL A   2       1.930  32.970  46.972  0.00  0.00    +0.027 C 
ATOM     28  CG2 VAL A   2       3.000  32.011  46.531  0.00  0.00    +0.002 C 
ATOM     29  CG1 VAL A   2       0.871  33.112  45.887  0.00  0.00    +0.002 C 
ENDBRANCH   1  27
TORSDOF 12
REMARK  Name = ../refined-set-2016/1atl/1atl_pocket.pdb
REMARK  139 active torsions:
REMARK  status: ('A' for Active; 'I' for Inactive)
REMARK    1  A    between atoms: _1  and  _3
REMARK    2  A    between atoms: _3  and  _4
REMARK    3  A    between atoms: _3  and  _6
REMARK    4  A    between atoms: _6  and  _7
REMARK    5  A    between atoms: _9  and  _11
REMARK    6  A    between atoms: _11  and  _12
REMARK    7  A    between atoms: _11  and  _14
REMARK    8  A    between atoms: _14  and  _15
REMARK    9  A    between atoms: _18  and  _20
REMARK   10  A    between atoms: _20  and  _21
REMARK   11  A    between atoms: _20  and  _23
REMARK   12  A    between atoms: _23  and  _24
REMARK   13  A    between atoms: _27  and  _29
REMARK   14  A    between atoms: _29  and  _30
REMARK   15  A    between atoms: _29  and  _32
REMARK   16  A    between atoms: _32  and  _33
REMARK   17  A    between atoms: _33  and  _34
REMARK   18  A    between atoms: _37  and  _39
REMARK   19  A    between atoms: _39  and  _40
REMARK   20  A    between atoms: _39  and  _42
REMARK   21  A    between atoms: _42  and  _43
REMARK   22  A    between atoms: _43  and  _44
REMARK   23  A    between atoms: _47  and  _49
REMARK   24  A    between atoms: _49  and  _50
REMARK   25  A    between atoms: _49  and  _52
REMARK   26  A    between atoms: _52  and  _53
REMARK   27  A    between atoms: _56  and  _58
REMARK   28  A    between atoms: _58  and  _59
REMARK   29  A    between atoms: _58  and  _61
REMARK   30  A    between atoms: _61  and  _62
REMARK   31  A    between atoms: _65  and  _67
REMARK   32  A    between atoms: _67  and  _68
REMARK   33  A    between atoms: _70  and  _72
REMARK   34  A    between atoms: _72  and  _73
REMARK   35  A    between atoms: _72  and  _75
REMARK   36  A    between atoms: _75  and  _76
REMARK   37  A    between atoms: _79  and  _81
REMARK   38  A    between atoms: _81  and  _82
REMARK   39  A    between atoms: _85  and  _87
REMARK   40  A    between atoms: _87  and  _88
REMARK   41  A    between atoms: _87  and  _90
REMARK   42  A    between atoms: _90  and  _91
REMARK   43  A    between atoms: _94  and  _96
REMARK   44  A    between atoms: _96  and  _97
REMARK   45  A    between atoms: _96  and  _99
REMARK   46  A    between atoms: _102  and  _104
REMARK   47  A    between atoms: _104  and  _105
REMARK   48  A    between atoms: _104  and  _107
REMARK   49  A    between atoms: _107  and  _108
REMARK   50  A    between atoms: _108  and  _109
REMARK   51  A    between atoms: _114  and  _116
REMARK   52  A    between atoms: _116  and  _117
REMARK   53  A    between atoms: _116  and  _119
REMARK   54  A    between atoms: _119  and  _120
REMARK   55  A    between atoms: _125  and  _127
REMARK   56  A    between atoms: _127  and  _128
REMARK   57  A    between atoms: _127  and  _130
REMARK   58  A    between atoms: _130  and  _131
REMARK   59  A    between atoms: _134  and  _136
REMARK   60  A    between atoms: _136  and  _137
REMARK   61  A    between atoms: _136  and  _139
REMARK   62  A    between atoms: _142  and  _144
REMARK   63  A    between atoms: _144  and  _145
REMARK   64  A    between atoms: _144  and  _147
REMARK   65  A    between atoms: _147  and  _148
REMARK   66  A    between atoms: _151  and  _153
REMARK   67  A    between atoms: _153  and  _154
REMARK   68  A    between atoms: _153  and  _156
REMARK   69  A    between atoms: _156  and  _157
REMARK   70  A    between atoms: _157  and  _158
REMARK   71  A    between atoms: _160  and  _162
REMARK   72  A    between atoms: _162  and  _163
REMARK   73  A    between atoms: _166  and  _168
REMARK   74  A    between atoms: _168  and  _169
REMARK   75  A    between atoms: _168  and  _171
REMARK   76  A    between atoms: _171  and  _172
REMARK   77  A    between atoms: _176  and  ZN_323
REMARK   78  A    between atoms: _177  and  _179
REMARK   79  A    between atoms: _179  and  _180
REMARK   80  A    between atoms: _179  and  _182
REMARK   81  A    between atoms: _182  and  _183
REMARK   82  A    between atoms: _183  and  _184
REMARK   83  A    between atoms: _187  and  _189
REMARK   84  A    between atoms: _189  and  _190
REMARK   85  A    between atoms: _189  and  _192
REMARK   86  A    between atoms: _192  and  _193
REMARK   87  A    between atoms: _197  and  ZN_323
REMARK   88  A    between atoms: _198  and  _200
REMARK   89  A    between atoms: _200  and  _201
REMARK   90  A    between atoms: _200  and  _203
REMARK   91  A    between atoms: _203  and  _204
REMARK   92  A    between atoms: _208  and  ZN_323
REMARK   93  A    between atoms: _209  and  _211
REMARK   94  A    between atoms: _211  and  _212
REMARK   95  A    between atoms: _211  and  _214
REMARK   96  A    between atoms: _214  and  _215
REMARK   97  A    between atoms: _218  and  _220
REMARK   98  A    between atoms: _220  and  _221
REMARK   99  A    between atoms: _220  and  _223
REMARK  100  A    between atoms: _223  and  _224
REMARK  101  A    between atoms: _227  and  _229
REMARK  102  A    between atoms: _229  and  _230
REMARK  103  A    between atoms: _229  and  _232
REMARK  104  A    between atoms: _234  and  _236
REMARK  105  A    between atoms: _236  and  _237
REMARK  106  A    between atoms: _236  and  _239
REMARK  107  A    between atoms: _239  and  _240
REMARK  108  A    between atoms: _243  and  _245
REMARK  109  A    between atoms: _245  and  _246
REMARK  110  A    between atoms: _245  and  _248
REMARK  111  A    between atoms: _248  and  _249
REMARK  112  A    between atoms: _249  and  _250
REMARK  113  A    between atoms: _252  and  _254
REMARK  114  A    between atoms: _254  and  _255
REMARK  115  A    between atoms: _254  and  _257
REMARK  116  A    between atoms: _257  and  _258
REMARK  117  A    between atoms: _258  and  _259
REMARK  118  A    between atoms: _259  and  _260
REMARK  119  A    between atoms: _270  and  _271
REMARK  120  A    between atoms: _276  and  _278
REMARK  121  A    between atoms: _278  and  _279
REMARK  122  A    between atoms: _281  and  _283
REMARK  123  A    between atoms: _283  and  _284
REMARK  124  A    between atoms: _283  and  _286
REMARK  125  A    between atoms: _286  and  _287
REMARK  126  A    between atoms: _290  and  _292
REMARK  127  A    between atoms: _292  and  _293
REMARK  128  A    between atoms: _292  and  _295
REMARK  129  A    between atoms: _295  and  _296
REMARK  130  A    between atoms: _299  and  _301
REMARK  131  A    between atoms: _301  and  _302
REMARK  132  A    between atoms: _301  and  _304
REMARK  133  A    between atoms: _304  and  _305
REMARK  134  A    between atoms: _310  and  _311
REMARK  135  A    between atoms: _313  and  _315
REMARK  136  A    between atoms: _315  and  _316
REMARK  137  A    between atoms: _315  and  _318
REMARK  138  A    between atoms: _318  and  _319
REMARK  139  A    between atoms: _319  and  _320
REMARK                            x       y       z     vdW  Elec       q    Type
REMARK                         _______ _______ _______ _____ _____    ______ ____
ROOT
ATOM      1  CB  HIS A   1       6.331  26.291  49.332  0.00  0.00    +0.072 C 
ENDROOT
BRANCH   1   2
ATOM      2  CG  HIS A   1       5.836  26.305  47.915  0.00  0.00    +0.082 A 
ATOM      3  CD2 HIS A   1       5.045  27.181  47.256  0.00  0.00    +0.115 A 
ATOM      4  NE2 HIS A   1       4.971  26.762  45.951  0.00  0.00    -0.221 NA
ATOM      5  CE1 HIS A   1       5.689  25.662  45.812  0.00  0.00    +0.199 A 
ATOM      6  ND1 HIS A   1       6.217  25.362  46.984  0.00  0.00    -0.227 NA
ENDBRANCH   1   2
BRANCH   1   7
ATOM      7  CA  HIS A   1       7.631  27.078  49.535  0.00  0.00    +0.139 C 
BRANCH   7   8
ATOM      8  N   HIS A   1       7.370  28.493  49.286  0.00  0.00    -0.239 NA
ATOM      9  H   HIS A   1       6.803  28.759  48.456  0.00  0.00    +0.142 HD
ENDBRANCH   7   8
BRANCH   7  10
ATOM     10  C   HIS A   1       8.717  26.417  48.703  0.00  0.00    +0.224 C 
ATOM     11  O   HIS A   1       9.047  25.260  48.937  0.00  0.00    -0.287 OA
ENDBRANCH   7  10
ENDBRANCH   1   7
TORSDOF 4
REMARK  Name = ../refined-set-2016/1atl/1atl_pocket.pdb
REMARK  139 active torsions:
REMARK  status: ('A' for Active; 'I' for Inactive)
REMARK    1  A    between atoms: _1  and  _3
REMARK    2  A    between atoms: _3  and  _4
REMARK    3  A    between atoms: _3  and  _6
REMARK    4  A    between atoms: _6  and  _7
REMARK    5  A    between atoms: _9  and  _11
REMARK    6  A    between atoms: _11  and  _12
REMARK    7  A    between atoms: _11  and  _14
REMARK    8  A    between atoms: _14  and  _15
REMARK    9  A    between atoms: _18  and  _20
REMARK   10  A    between atoms: _20  and  _21
REMARK   11  A    between atoms: _20  and  _23
REMARK   12  A    between atoms: _23  and  _24
REMARK   13  A    between atoms: _27  and  _29
REMARK   14  A    between atoms: _29  and  _30
REMARK   15  A    between atoms: _29  and  _32
REMARK   16  A    between atoms: _32  and  _33
REMARK   17  A    between atoms: _33  and  _34
REMARK   18  A    between atoms: _37  and  _39
REMARK   19  A    between atoms: _39  and  _40
REMARK   20  A    between atoms: _39  and  _42
REMARK   21  A    between atoms: _42  and  _43
REMARK   22  A    between atoms: _43  and  _44
REMARK   23  A    between atoms: _47  and  _49
REMARK   24  A    between atoms: _49  and  _50
REMARK   25  A    between atoms: _49  and  _52
REMARK   26  A    between atoms: _52  and  _53
REMARK   27  A    between atoms: _56  and  _58
REMARK   28  A    between atoms: _58  and  _59
REMARK   29  A    between atoms: _58  and  _61
REMARK   30  A    between atoms: _61  and  _62
REMARK   31  A    between atoms: _65  and  _67
REMARK   32  A    between atoms: _67  and  _68
REMARK   33  A    between atoms: _70  and  _72
REMARK   34  A    between atoms: _72  and  _73
REMARK   35  A    between atoms: _72  and  _75
REMARK   36  A    between atoms: _75  and  _76
REMARK   37  A    between atoms: _79  and  _81
REMARK   38  A    between atoms: _81  and  _82
REMARK   39  A    between atoms: _85  and  _87
REMARK   40  A    between atoms: _87  and  _88
REMARK   41  A    between atoms: _87  and  _90
REMARK   42  A    between atoms: _90  and  _91
REMARK   43  A    between atoms: _94  and  _96
REMARK   44  A    between atoms: _96  and  _97
REMARK   45  A    between atoms: _96  and  _99
REMARK   46  A    between atoms: _102  and  _104
REMARK   47  A    between atoms: _104  and  _105
REMARK   48  A    between atoms: _104  and  _107
REMARK   49  A    between atoms: _107  and  _108
REMARK   50  A    between atoms: _108  and  _109
REMARK   51  A    between atoms: _114  and  _116
REMARK   52  A    between atoms: _116  and  _117
REMARK   53  A    between atoms: _116  and  _119
REMARK   54  A    between atoms: _119  and  _120
REMARK   55  A    between atoms: _125  and  _127
REMARK   56  A    between atoms: _127  and  _128
REMARK   57  A    between atoms: _127  and  _130
REMARK   58  A    between atoms: _130  and  _131
REMARK   59  A    between atoms: _134  and  _136
REMARK   60  A    between atoms: _136  and  _137
REMARK   61  A    between atoms: _136  and  _139
REMARK   62  A    between atoms: _142  and  _144
REMARK   63  A    between atoms: _144  and  _145
REMARK   64  A    between atoms: _144  and  _147
REMARK   65  A    between atoms: _147  and  _148
REMARK   66  A    between atoms: _151  and  _153
REMARK   67  A    between atoms: _153  and  _154
REMARK   68  A    between atoms: _153  and  _156
REMARK   69  A    between atoms: _156  and  _157
REMARK   70  A    between atoms: _157  and  _158
REMARK   71  A    between atoms: _160  and  _162
REMARK   72  A    between atoms: _162  and  _163
REMARK   73  A    between atoms: _166  and  _168
REMARK   74  A    between atoms: _168  and  _169
REMARK   75  A    between atoms: _168  and  _171
REMARK   76  A    between atoms: _171  and  _172
REMARK   77  A    between atoms: _176  and  ZN_323
REMARK   78  A    between atoms: _177  and  _179
REMARK   79  A    between atoms: _179  and  _180
REMARK   80  A    between atoms: _179  and  _182
REMARK   81  A    between atoms: _182  and  _183
REMARK   82  A    between atoms: _183  and  _184
REMARK   83  A    between atoms: _187  and  _189
REMARK   84  A    between atoms: _189  and  _190
REMARK   85  A    between atoms: _189  and  _192
REMARK   86  A    between atoms: _192  and  _193
REMARK   87  A    between atoms: _197  and  ZN_323
REMARK   88  A    between atoms: _198  and  _200
REMARK   89  A    between atoms: _200  and  _201
REMARK   90  A    between atoms: _200  and  _203
REMARK   91  A    between atoms: _203  and  _204
REMARK   92  A    between atoms: _208  and  ZN_323
REMARK   93  A    between atoms: _209  and  _211
REMARK   94  A    between atoms: _211  and  _212
REMARK   95  A    between atoms: _211  and  _214
REMARK   96  A    between atoms: _214  and  _215
REMARK   97  A    between atoms: _218  and  _220
REMARK   98  A    between atoms: _220  and  _221
REMARK   99  A    between atoms: _220  and  _223
REMARK  100  A    between atoms: _223  and  _224
REMARK  101  A    between atoms: _227  and  _229
REMARK  102  A    between atoms: _229  and  _230
REMARK  103  A    between atoms: _229  and  _232
REMARK  104  A    between atoms: _234  and  _236
REMARK  105  A    between atoms: _236  and  _237
REMARK  106  A    between atoms: _236  and  _239
REMARK  107  A    between atoms: _239  and  _240
REMARK  108  A    between atoms: _243  and  _245
REMARK  109  A    between atoms: _245  and  _246
REMARK  110  A    between atoms: _245  and  _248
REMARK  111  A    between atoms: _248  and  _249
REMARK  112  A    between atoms: _249  and  _250
REMARK  113  A    between atoms: _252  and  _254
REMARK  114  A    between atoms: _254  and  _255
REMARK  115  A    between atoms: _254  and  _257
REMARK  116  A    between atoms: _257  and  _258
REMARK  117  A    between atoms: _258  and  _259
REMARK  118  A    between atoms: _259  and  _260
REMARK  119  A    between atoms: _270  and  _271
REMARK  120  A    between atoms: _276  and  _278
REMARK  121  A    between atoms: _278  and  _279
REMARK  122  A    between atoms: _281  and  _283
REMARK  123  A    between atoms: _283  and  _284
REMARK  124  A    between atoms: _283  and  _286
REMARK  125  A    between atoms: _286  and  _287
REMARK  126  A    between atoms: _290  and  _292
REMARK  127  A    between atoms: _292  and  _293
REMARK  128  A    between atoms: _292  and  _295
REMARK  129  A    between atoms: _295  and  _296
REMARK  130  A    between atoms: _299  and  _301
REMARK  131  A    between atoms: _301  and  _302
REMARK  132  A    between atoms: _301  and  _304
REMARK  133  A    between atoms: _304  and  _305
REMARK  134  A    between atoms: _310  and  _311
REMARK  135  A    between atoms: _313  and  _315
REMARK  136  A    between atoms: _315  and  _316
REMARK  137  A    between atoms: _315  and  _318
REMARK  138  A    between atoms: _318  and  _319
REMARK  139  A    between atoms: _319  and  _320
REMARK                            x       y       z     vdW  Elec       q    Type
REMARK                         _______ _______ _______ _____ _____    ______ ____
ROOT
ATOM      1  CA  LEU A   1       7.440  26.544  40.720  0.00  0.00    +0.133 C 
ENDROOT
BRANCH   1   2
ATOM      2  N   LEU A   1       8.512  27.095  39.894  0.00  0.00    -0.239 NA
ATOM      3  H   LEU A   1       9.500  26.862  40.122  0.00  0.00    +0.142 HD
ENDBRANCH   1   2
BRANCH   1   4
ATOM      4  C   LEU A   1       6.683  27.643  41.447  0.00  0.00    +0.224 C 
ATOM      5  O   LEU A   1       5.476  27.525  41.645  0.00  0.00    -0.287 OA
ENDBRANCH   1   4
BRANCH   1   6
ATOM      6  CB  LEU A   1       7.972  25.495  41.712  0.00  0.00    +0.025 C 
BRANCH   6   7
ATOM      7  CG  LEU A   1       8.632  24.252  41.100  0.00  0.00    +0.002 C 
ATOM      8  CD2 LEU A   1       8.775  23.164  42.154  0.00  0.00    +0.000 C 
ATOM      9  CD1 LEU A   1       7.815  23.738  39.935  0.00  0.00    +0.000 C 
ENDBRANCH   6   7
ENDBRANCH   1   6
TORSDOF 4
REMARK  Name = ../refined-set-2016/1atl/1atl_pocket.pdb
REMARK  139 active torsions:
REMARK  status: ('A' for Active; 'I' for Inactive)
REMARK    1  A    between atoms: _1  and  _3
REMARK    2  A    between atoms: _3  and  _4
REMARK    3  A    between atoms: _3  and  _6
REMARK    4  A    between atoms: _6  and  _7
REMARK    5  A    between atoms: _9  and  _11
REMARK    6  A    between atoms: _11  and  _12
REMARK    7  A    between atoms: _11  and  _14
REMARK    8  A    between atoms: _14  and  _15
REMARK    9  A    between atoms: _18  and  _20
REMARK   10  A    between atoms: _20  and  _21
REMARK   11  A    between atoms: _20  and  _23
REMARK   12  A    between atoms: _23  and  _24
REMARK   13  A    between atoms: _27  and  _29
REMARK   14  A    between atoms: _29  and  _30
REMARK   15  A    between atoms: _29  and  _32
REMARK   16  A    between atoms: _32  and  _33
REMARK   17  A    between atoms: _33  and  _34
REMARK   18  A    between atoms: _37  and  _39
REMARK   19  A    between atoms: _39  and  _40
REMARK   20  A    between atoms: _39  and  _42
REMARK   21  A    between atoms: _42  and  _43
REMARK   22  A    between atoms: _43  and  _44
REMARK   23  A    between atoms: _47  and  _49
REMARK   24  A    between atoms: _49  and  _50
REMARK   25  A    between atoms: _49  and  _52
REMARK   26  A    between atoms: _52  and  _53
REMARK   27  A    between atoms: _56  and  _58
REMARK   28  A    between atoms: _58  and  _59
REMARK   29  A    between atoms: _58  and  _61
REMARK   30  A    between atoms: _61  and  _62
REMARK   31  A    between atoms: _65  and  _67
REMARK   32  A    between atoms: _67  and  _68
REMARK   33  A    between atoms: _70  and  _72
REMARK   34  A    between atoms: _72  and  _73
REMARK   35  A    between atoms: _72  and  _75
REMARK   36  A    between atoms: _75  and  _76
REMARK   37  A    between atoms: _79  and  _81
REMARK   38  A    between atoms: _81  and  _82
REMARK   39  A    between atoms: _85  and  _87
REMARK   40  A    between atoms: _87  and  _88
REMARK   41  A    between atoms: _87  and  _90
REMARK   42  A    between atoms: _90  and  _91
REMARK   43  A    between atoms: _94  and  _96
REMARK   44  A    between atoms: _96  and  _97
REMARK   45  A    between atoms: _96  and  _99
REMARK   46  A    between atoms: _102  and  _104
REMARK   47  A    between atoms: _104  and  _105
REMARK   48  A    between atoms: _104  and  _107
REMARK   49  A    between atoms: _107  and  _108
REMARK   50  A    between atoms: _108  and  _109
REMARK   51  A    between atoms: _114  and  _116
REMARK   52  A    between atoms: _116  and  _117
REMARK   53  A    between atoms: _116  and  _119
REMARK   54  A    between atoms: _119  and  _120
REMARK   55  A    between atoms: _125  and  _127
REMARK   56  A    between atoms: _127  and  _128
REMARK   57  A    between atoms: _127  and  _130
REMARK   58  A    between atoms: _130  and  _131
REMARK   59  A    between atoms: _134  and  _136
REMARK   60  A    between atoms: _136  and  _137
REMARK   61  A    between atoms: _136  and  _139
REMARK   62  A    between atoms: _142  and  _144
REMARK   63  A    between atoms: _144  and  _145
REMARK   64  A    between atoms: _144  and  _147
REMARK   65  A    between atoms: _147  and  _148
REMARK   66  A    between atoms: _151  and  _153
REMARK   67  A    between atoms: _153  and  _154
REMARK   68  A    between atoms: _153  and  _156
REMARK   69  A    between atoms: _156  and  _157
REMARK   70  A    between atoms: _157  and  _158
REMARK   71  A    between atoms: _160  and  _162
REMARK   72  A    between atoms: _162  and  _163
REMARK   73  A    between atoms: _166  and  _168
REMARK   74  A    between atoms: _168  and  _169
REMARK   75  A    between atoms: _168  and  _171
REMARK   76  A    between atoms: _171  and  _172
REMARK   77  A    between atoms: _176  and  ZN_323
REMARK   78  A    between atoms: _177  and  _179
REMARK   79  A    between atoms: _179  and  _180
REMARK   80  A    between atoms: _179  and  _182
REMARK   81  A    between atoms: _182  and  _183
REMARK   82  A    between atoms: _183  and  _184
REMARK   83  A    between atoms: _187  and  _189
REMARK   84  A    between atoms: _189  and  _190
REMARK   85  A    between atoms: _189  and  _192
REMARK   86  A    between atoms: _192  and  _193
REMARK   87  A    between atoms: _197  and  ZN_323
REMARK   88  A    between atoms: _198  and  _200
REMARK   89  A    between atoms: _200  and  _201
REMARK   90  A    between atoms: _200  and  _203
REMARK   91  A    between atoms: _203  and  _204
REMARK   92  A    between atoms: _208  and  ZN_323
REMARK   93  A    between atoms: _209  and  _211
REMARK   94  A    between atoms: _211  and  _212
REMARK   95  A    between atoms: _211  and  _214
REMARK   96  A    between atoms: _214  and  _215
REMARK   97  A    between atoms: _218  and  _220
REMARK   98  A    between atoms: _220  and  _221
REMARK   99  A    between atoms: _220  and  _223
REMARK  100  A    between atoms: _223  and  _224
REMARK  101  A    between atoms: _227  and  _229
REMARK  102  A    between atoms: _229  and  _230
REMARK  103  A    between atoms: _229  and  _232
REMARK  104  A    between atoms: _234  and  _236
REMARK  105  A    between atoms: _236  and  _237
REMARK  106  A    between atoms: _236  and  _239
REMARK  107  A    between atoms: _239  and  _240
REMARK  108  A    between atoms: _243  and  _245
REMARK  109  A    between atoms: _245  and  _246
REMARK  110  A    between atoms: _245  and  _248
REMARK  111  A    between atoms: _248  and  _249
REMARK  112  A    between atoms: _249  and  _250
REMARK  113  A    between atoms: _252  and  _254
REMARK  114  A    between atoms: _254  and  _255
REMARK  115  A    between atoms: _254  and  _257
REMARK  116  A    between atoms: _257  and  _258
REMARK  117  A    between atoms: _258  and  _259
REMARK  118  A    between atoms: _259  and  _260
REMARK  119  A    between atoms: _270  and  _271
REMARK  120  A    between atoms: _276  and  _278
REMARK  121  A    between atoms: _278  and  _279
REMARK  122  A    between atoms: _281  and  _283
REMARK  123  A    between atoms: _283  and  _284
REMARK  124  A    between atoms: _283  and  _286
REMARK  125  A    between atoms: _286  and  _287
REMARK  126  A    between atoms: _290  and  _292
REMARK  127  A    between atoms: _292  and  _293
REMARK  128  A    between atoms: _292  and  _295
REMARK  129  A    between atoms: _295  and  _296
REMARK  130  A    between atoms: _299  and  _301
REMARK  131  A    between atoms: _301  and  _302
REMARK  132  A    between atoms: _301  and  _304
REMARK  133  A    between atoms: _304  and  _305
REMARK  134  A    between atoms: _310  and  _311
REMARK  135  A    between atoms: _313  and  _315
REMARK  136  A    between atoms: _315  and  _316
REMARK  137  A    between atoms: _315  and  _318
REMARK  138  A    between atoms: _318  and  _319
REMARK  139  A    between atoms: _319  and  _320
REMARK                            x       y       z     vdW  Elec       q    Type
REMARK                         _______ _______ _______ _____ _____    ______ ____
ROOT
ATOM      1  C   UNK A   5      -2.584  29.674  39.876  0.00  0.00    +0.000 C 
ENDROOT
BRANCH   1   2
ATOM      2  C   UNK A   5      -3.535  30.519  40.734  0.00  0.00    +0.000 C 
ATOM      3  N   GLU A   6      -2.991  31.224  41.725  0.00  0.00    +0.000 N 
ATOM      4  H   GLU A   6      -1.965  31.179  41.887  0.00  0.00    +0.000 HD
ATOM      5  O   UNK A   5      -4.750  30.527  40.494  0.00  0.00    +0.000 OA
BRANCH   3   6
ATOM      6  CA  GLU A   6      -3.825  32.061  42.587  0.00  0.00    +0.000 C 
BRANCH   6   7
ATOM      7  C   GLU A   6      -4.455  33.208  41.809  0.00  0.00    +0.000 C 
ATOM      8  O   GLU A   6      -5.623  33.546  42.031  0.00  0.00    +0.000 OA
ENDBRANCH   6   7
BRANCH   6   9
ATOM      9  CB  GLU A   6      -3.054  32.551  43.815  0.00  0.00    +0.000 C 
BRANCH   9  10
ATOM     10  CG  GLU A   6      -2.530  31.407  44.706  0.00  0.00    +0.000 C 
BRANCH  10  11
ATOM     11  CD  GLU A   6      -3.559  30.295  44.981  0.00  0.00    +0.000 C 
ATOM     12  OE2 GLU A   6      -3.120  29.142  45.149  0.00  0.00    +0.000 OA
ATOM     13  OE1 GLU A   6      -4.790  30.543  45.030  0.00  0.00    +0.000 OA
ENDBRANCH  10  11
ENDBRANCH   9  10
ENDBRANCH   6   9
ENDBRANCH   3   6
ENDBRANCH   1   2
BRANCH   1  15
ATOM     14  C   ALA A   4      -1.479  31.509  38.690  0.00  0.00    +0.000 C 
ATOM     15  N   UNK A   5      -1.413  30.450  39.489  0.00  0.00    +0.000 N 
ATOM     16  H   UNK A   5      -0.483  30.162  39.855  0.00  0.00    +0.000 HD
ATOM     17  O   ALA A   4      -2.542  31.917  38.220  0.00  0.00    +0.000 OA
BRANCH  14  18
ATOM     18  CA  ALA A   4      -0.146  32.224  38.398  0.00  0.00    +0.000 C 
ATOM     19  CB  ALA A   4       0.575  31.559  37.237  0.00  0.00    +0.000 C 
BRANCH  18  22
ATOM     20  C   MET A   3       0.331  32.799  40.713  0.00  0.00    +0.000 C 
ATOM     21  O   MET A   3      -0.745  33.396  40.841  0.00  0.00    +0.000 OA
ATOM     22  N   ALA A   4       0.710  32.219  39.584  0.00  0.00    +0.000 N 
ATOM     23  H   ALA A   4       1.637  31.750  39.540  0.00  0.00    +0.000 HD
BRANCH  20  24
ATOM     24  CA  MET A   3       1.288  32.693  41.895  0.00  0.00    +0.000 C 
BRANCH  24  27
ATOM     25  C   ASP A   2       1.146  30.297  42.264  0.00  0.00    +0.000 C 
ATOM     26  O   ASP A   2      -0.073  30.357  42.439  0.00  0.00    +0.000 OA
ATOM     27  N   MET A   3       1.887  31.364  41.983  0.00  0.00    +0.000 N 
ATOM     28  H   MET A   3       2.908  31.251  41.823  0.00  0.00    +0.000 HD
BRANCH  25  29
ATOM     29  CA  ASP A   2       1.865  28.952  42.343  0.00  0.00    +0.000 C 
BRANCH  29  31
ATOM     30  C   UNK A   1       2.175  28.674  39.934  0.00  0.00    +0.000 C 
ATOM     31  N   ASP A   2       2.688  28.712  41.161  0.00  0.00    +0.000 N 
ATOM     32  H   ASP A   2       3.710  28.566  41.282  0.00  0.00    +0.000 HD
ATOM     33  O   UNK A   1       0.978  28.859  39.705  0.00  0.00    +0.000 OA
BRANCH  30  34
ATOM     34  C   UNK A   1       3.164  28.411  38.785  0.00  0.00    +0.000 C 
BRANCH  34  35
ATOM     35  C   UNK A   1       3.507  26.900  38.744  0.00  0.00    +0.000 C 
ATOM     36  C   UNK A   1       2.242  26.059  38.581  0.00  0.00    +0.000 C 
ATOM     37  C   UNK A   1       4.470  26.621  37.607  0.00  0.00    +0.000 C 
ENDBRANCH  34  35
BRANCH  34  38
ATOM     38  N   UNK A   1       4.370  29.228  38.961  0.00  0.00    +0.000 NA
ATOM     39  H   UNK A   1       5.288  28.754  39.077  0.00  0.00    +0.000 HD
ENDBRANCH  34  38
ENDBRANCH  30  34
ENDBRANCH  29  31
BRANCH  29  40
ATOM     40  CB  ASP A   2       2.720  28.895  43.644  0.00  0.00    +0.000 C 
ATOM     41  CG2 ASP A   2       1.846  29.018  44.884  0.00  0.00    +0.000 C 
BRANCH  40  42
ATOM     42  OG1 ASP A   2       3.421  27.646  43.687  0.00  0.00    +0.000 OA
ATOM     43  HG1 ASP A   2       4.011  27.573  42.895  0.00  0.00    +0.000 HD
ENDBRANCH  40  42
ENDBRANCH  29  40
ENDBRANCH  25  29
ENDBRANCH  24  27
BRANCH  24  44
ATOM     44  CB  MET A   3       2.352  33.791  41.829  0.00  0.00    +0.000 C 
BRANCH  44  45
ATOM     45  CG  MET A   3       1.762  35.170  42.080  0.00  0.00    +0.000 C 
BRANCH  45  46
ATOM     46  SD  MET A   3       2.990  36.434  42.440  0.00  0.00    +0.000 S 
ATOM     47  CE  MET A   3       3.873  35.638  43.797  0.00  0.00    +0.000 C 
ENDBRANCH  45  46
ENDBRANCH  44  45
ENDBRANCH  24  44
ENDBRANCH  20  24
ENDBRANCH  18  22
ENDBRANCH  14  18
ENDBRANCH   1  15
BRANCH   1  48
ATOM     48  C   UNK A   5      -2.130  28.419  40.637  0.00  0.00    +0.000 C 
BRANCH  48  49
ATOM     49  C   UNK A   5      -3.246  27.537  41.109  0.00  0.00    +0.000 A 
ATOM     50  C   UNK A   5      -4.167  27.712  42.084  0.00  0.00    +0.000 A 
ATOM     51  N   UNK A   5      -4.930  26.568  42.223  0.00  0.00    +0.000 N 
ATOM     52  C   UNK A   5      -4.479  25.669  41.303  0.00  0.00    +0.000 A 
ATOM     53  N   UNK A   5      -3.453  26.267  40.612  0.00  0.00    +0.000 NA
BRANCH  51  54
ATOM     54 ZN   UNK A   5      -6.386  26.394  43.633  0.00  0.00    +0.000 Zn
BRANCH  54  55
ATOM     55  N   UNK A   5      -7.677  27.883  42.988  0.00  0.00    +0.000 N 
ATOM     56  C   UNK A   5      -7.477  29.238  43.195  0.00  0.00    +0.000 A 
ATOM     57  C   UNK A   5      -8.282  29.944  42.367  0.00  0.00    +0.000 A 
ATOM     58  N   UNK A   5      -8.986  29.016  41.628  0.00  0.00    +0.000 NA
ATOM     59  C   UNK A   5      -8.618  27.754  42.015  0.00  0.00    +0.000 A 
BRANCH  57  60
ATOM     60  C   UNK A   5      -8.476  31.420  42.208  0.00  0.00    +0.000 C 
BRANCH  60  61
ATOM     61  C   UNK A   5      -8.712  31.862  40.764  0.00  0.00    +0.000 C 
BRANCH  61  62
ATOM     62  N   UNK A   5      -7.469  31.886  40.003  0.00  0.00    +0.000 NA
ATOM     63  H   UNK A   1      -6.571  31.666  40.480  0.00  0.00    +0.000 HD
ENDBRANCH  61  62
BRANCH  61  64
ATOM     64  C   UNK A   5      -9.361  33.248  40.751  0.00  0.00    +0.000 C 
ATOM     65  O   UNK A   1     -10.572  33.363  40.580  0.00  0.00    +0.000 OA
ENDBRANCH  61  64
ENDBRANCH  60  61
ENDBRANCH  57  60
ENDBRANCH  54  55
BRANCH  54  66
ATOM     66  N   UNK A   5      -7.396  24.785  43.015  0.00  0.00    +0.000 N 
ATOM     67  C   UNK A   5      -8.171  24.004  43.869  0.00  0.00    +0.000 A 
ATOM     68  N   UNK A   5      -8.972  23.215  43.087  0.00  0.00    +0.000 NA
ATOM     69  C   UNK A   5      -8.734  23.483  41.760  0.00  0.00    +0.000 A 
ATOM     70  C   UNK A   5      -7.766  24.431  41.732  0.00  0.00    +0.000 A 
BRANCH  69  71
ATOM     71  C   UNK A   5      -9.485  22.805  40.659  0.00  0.00    +0.000 C 
BRANCH  71  72
ATOM     72  C   UNK A   5      -9.636  23.650  39.397  0.00  0.00    +0.000 C 
BRANCH  72  73
ATOM     73  C   UNK A   5      -9.884  22.703  38.245  0.00  0.00    +0.000 C 
ATOM     74  O   UNK A   5     -11.012  22.523  37.804  0.00  0.00    +0.000 OA
ATOM     75  N   ASP A   2      -8.805  22.106  37.753  0.00  0.00    +0.000 N 
ATOM     76  H   ASP A   2      -7.874  22.354  38.144  0.00  0.00    +0.000 HD
BRANCH  75  77
ATOM     77  CA  ASP A   2      -8.877  21.114  36.683  0.00  0.00    +0.000 C 
BRANCH  77  78
ATOM     78  C   ASP A   2      -8.869  19.768  37.394  0.00  0.00    +0.000 C 
ATOM     79  O   ASP A   2      -8.737  19.700  38.623  0.00  0.00    +0.000 OA
ENDBRANCH  77  78
BRANCH  77  80
ATOM     80  CB  ASP A   2      -7.627  21.146  35.795  0.00  0.00    +0.000 C 
BRANCH  80  81
ATOM     81  CG  ASP A   2      -7.531  22.389  34.963  0.00  0.00    +0.000 C 
ATOM     82  OD2 ASP A   2      -6.434  22.956  34.924  0.00  0.00    +0.000 OA
ATOM     83  OD1 ASP A   2      -8.537  22.791  34.345  0.00  0.00    +0.000 OA
ENDBRANCH  80  81
ENDBRANCH  77  80
ENDBRANCH  75  77
ENDBRANCH  72  73
BRANCH  72  84
ATOM     84  N   UNK A   5     -10.644  24.685  39.588  0.00  0.00    +0.000 NA
ATOM     85  H   UNK A   1     -11.239  24.668  40.441  0.00  0.00    +0.000 HD
ENDBRANCH  72  84
ENDBRANCH  71  72
ENDBRANCH  69  71
ENDBRANCH  54  66
ENDBRANCH  51  54
ENDBRANCH  48  49
ENDBRANCH   1  48
TORSDOF 38
REMARK  Name = ../refined-set-2016/1atl/1atl_pocket.pdb
REMARK  139 active torsions:
REMARK  status: ('A' for Active; 'I' for Inactive)
REMARK    1  A    between atoms: _1  and  _3
REMARK    2  A    between atoms: _3  and  _4
REMARK    3  A    between atoms: _3  and  _6
REMARK    4  A    between atoms: _6  and  _7
REMARK    5  A    between atoms: _9  and  _11
REMARK    6  A    between atoms: _11  and  _12
REMARK    7  A    between atoms: _11  and  _14
REMARK    8  A    between atoms: _14  and  _15
REMARK    9  A    between atoms: _18  and  _20
REMARK   10  A    between atoms: _20  and  _21
REMARK   11  A    between atoms: _20  and  _23
REMARK   12  A    between atoms: _23  and  _24
REMARK   13  A    between atoms: _27  and  _29
REMARK   14  A    between atoms: _29  and  _30
REMARK   15  A    between atoms: _29  and  _32
REMARK   16  A    between atoms: _32  and  _33
REMARK   17  A    between atoms: _33  and  _34
REMARK   18  A    between atoms: _37  and  _39
REMARK   19  A    between atoms: _39  and  _40
REMARK   20  A    between atoms: _39  and  _42
REMARK   21  A    between atoms: _42  and  _43
REMARK   22  A    between atoms: _43  and  _44
REMARK   23  A    between atoms: _47  and  _49
REMARK   24  A    between atoms: _49  and  _50
REMARK   25  A    between atoms: _49  and  _52
REMARK   26  A    between atoms: _52  and  _53
REMARK   27  A    between atoms: _56  and  _58
REMARK   28  A    between atoms: _58  and  _59
REMARK   29  A    between atoms: _58  and  _61
REMARK   30  A    between atoms: _61  and  _62
REMARK   31  A    between atoms: _65  and  _67
REMARK   32  A    between atoms: _67  and  _68
REMARK   33  A    between atoms: _70  and  _72
REMARK   34  A    between atoms: _72  and  _73
REMARK   35  A    between atoms: _72  and  _75
REMARK   36  A    between atoms: _75  and  _76
REMARK   37  A    between atoms: _79  and  _81
REMARK   38  A    between atoms: _81  and  _82
REMARK   39  A    between atoms: _85  and  _87
REMARK   40  A    between atoms: _87  and  _88
REMARK   41  A    between atoms: _87  and  _90
REMARK   42  A    between atoms: _90  and  _91
REMARK   43  A    between atoms: _94  and  _96
REMARK   44  A    between atoms: _96  and  _97
REMARK   45  A    between atoms: _96  and  _99
REMARK   46  A    between atoms: _102  and  _104
REMARK   47  A    between atoms: _104  and  _105
REMARK   48  A    between atoms: _104  and  _107
REMARK   49  A    between atoms: _107  and  _108
REMARK   50  A    between atoms: _108  and  _109
REMARK   51  A    between atoms: _114  and  _116
REMARK   52  A    between atoms: _116  and  _117
REMARK   53  A    between atoms: _116  and  _119
REMARK   54  A    between atoms: _119  and  _120
REMARK   55  A    between atoms: _125  and  _127
REMARK   56  A    between atoms: _127  and  _128
REMARK   57  A    between atoms: _127  and  _130
REMARK   58  A    between atoms: _130  and  _131
REMARK   59  A    between atoms: _134  and  _136
REMARK   60  A    between atoms: _136  and  _137
REMARK   61  A    between atoms: _136  and  _139
REMARK   62  A    between atoms: _142  and  _144
REMARK   63  A    between atoms: _144  and  _145
REMARK   64  A    between atoms: _144  and  _147
REMARK   65  A    between atoms: _147  and  _148
REMARK   66  A    between atoms: _151  and  _153
REMARK   67  A    between atoms: _153  and  _154
REMARK   68  A    between atoms: _153  and  _156
REMARK   69  A    between atoms: _156  and  _157
REMARK   70  A    between atoms: _157  and  _158
REMARK   71  A    between atoms: _160  and  _162
REMARK   72  A    between atoms: _162  and  _163
REMARK   73  A    between atoms: _166  and  _168
REMARK   74  A    between atoms: _168  and  _169
REMARK   75  A    between atoms: _168  and  _171
REMARK   76  A    between atoms: _171  and  _172
REMARK   77  A    between atoms: _176  and  ZN_323
REMARK   78  A    between atoms: _177  and  _179
REMARK   79  A    between atoms: _179  and  _180
REMARK   80  A    between atoms: _179  and  _182
REMARK   81  A    between atoms: _182  and  _183
REMARK   82  A    between atoms: _183  and  _184
REMARK   83  A    between atoms: _187  and  _189
REMARK   84  A    between atoms: _189  and  _190
REMARK   85  A    between atoms: _189  and  _192
REMARK   86  A    between atoms: _192  and  _193
REMARK   87  A    between atoms: _197  and  ZN_323
REMARK   88  A    between atoms: _198  and  _200
REMARK   89  A    between atoms: _200  and  _201
REMARK   90  A    between atoms: _200  and  _203
REMARK   91  A    between atoms: _203  and  _204
REMARK   92  A    between atoms: _208  and  ZN_323
REMARK   93  A    between atoms: _209  and  _211
REMARK   94  A    between atoms: _211  and  _212
REMARK   95  A    between atoms: _211  and  _214
REMARK   96  A    between atoms: _214  and  _215
REMARK   97  A    between atoms: _218  and  _220
REMARK   98  A    between atoms: _220  and  _221
REMARK   99  A    between atoms: _220  and  _223
REMARK  100  A    between atoms: _223  and  _224
REMARK  101  A    between atoms: _227  and  _229
REMARK  102  A    between atoms: _229  and  _230
REMARK  103  A    between atoms: _229  and  _232
REMARK  104  A    between atoms: _234  and  _236
REMARK  105  A    between atoms: _236  and  _237
REMARK  106  A    between atoms: _236  and  _239
REMARK  107  A    between atoms: _239  and  _240
REMARK  108  A    between atoms: _243  and  _245
REMARK  109  A    between atoms: _245  and  _246
REMARK  110  A    between atoms: _245  and  _248
REMARK  111  A    between atoms: _248  and  _249
REMARK  112  A    between atoms: _249  and  _250
REMARK  113  A    between atoms: _252  and  _254
REMARK  114  A    between atoms: _254  and  _255
REMARK  115  A    between atoms: _254  and  _257
REMARK  116  A    between atoms: _257  and  _258
REMARK  117  A    between atoms: _258  and  _259
REMARK  118  A    between atoms: _259  and  _260
REMARK  119  A    between atoms: _270  and  _271
REMARK  120  A    between atoms: _276  and  _278
REMARK  121  A    between atoms: _278  and  _279
REMARK  122  A    between atoms: _281  and  _283
REMARK  123  A    between atoms: _283  and  _284
REMARK  124  A    between atoms: _283  and  _286
REMARK  125  A    between atoms: _286  and  _287
REMARK  126  A    between atoms: _290  and  _292
REMARK  127  A    between atoms: _292  and  _293
REMARK  128  A    between atoms: _292  and  _295
REMARK  129  A    between atoms: _295  and  _296
REMARK  130  A    between atoms: _299  and  _301
REMARK  131  A    between atoms: _301  and  _302
REMARK  132  A    between atoms: _301  and  _304
REMARK  133  A    between atoms: _304  and  _305
REMARK  134  A    between atoms: _310  and  _311
REMARK  135  A    between atoms: _313  and  _315
REMARK  136  A    between atoms: _315  and  _316
REMARK  137  A    between atoms: _315  and  _318
REMARK  138  A    between atoms: _318  and  _319
REMARK  139  A    between atoms: _319  and  _320
REMARK                            x       y       z     vdW  Elec       q    Type
REMARK                         _______ _______ _______ _____ _____    ______ ____
ROOT
ATOM      1  CA  ARG A   5      -4.582  21.375  38.950  0.00  0.00    +0.149 C 
ENDROOT
BRANCH   1   2
ATOM      2  C   ARG A   5      -4.744  21.733  40.428  0.00  0.00    +0.244 C 
ATOM      3  N   PRO A   6      -5.524  20.936  41.172  0.00  0.00    -0.272 N 
ATOM      4  CA  PRO A   6      -5.738  21.203  42.600  0.00  0.00    +0.152 C 
ATOM      5  CB  PRO A   6      -6.825  20.195  42.977  0.00  0.00    +0.031 C 
ATOM      6  CG  PRO A   6      -6.601  19.054  41.997  0.00  0.00    +0.024 C 
ATOM      7  CD  PRO A   6      -6.313  19.776  40.714  0.00  0.00    +0.094 C 
ATOM      8  O   ARG A   5      -4.160  22.713  40.906  0.00  0.00    -0.273 OA
BRANCH   4   9
ATOM      9  C   PRO A   6      -4.472  21.063  43.455  0.00  0.00    +0.241 C 
ATOM     10  O   PRO A   6      -4.366  21.669  44.527  0.00  0.00    -0.273 OA
ATOM     11  N   GLY A   7      -3.503  20.292  42.961  0.00  0.00    -0.295 N 
ATOM     12  H   GLY A   7      -3.640  19.821  42.044  0.00  0.00    +0.150 HD
BRANCH  11  13
ATOM     13  CA  GLY A   7      -2.259  20.100  43.684  0.00  0.00    +0.176 C 
BRANCH  13  14
ATOM     14  C   GLY A   7      -1.063  20.374  42.791  0.00  0.00    +0.243 C 
ATOM     15  N   LEU A   8       0.033  20.842  43.383  0.00  0.00    -0.297 N 
ATOM     16  H   LEU A   8       0.032  20.996  44.411  0.00  0.00    +0.150 HD
ATOM     17  O   GLY A   7      -1.128  20.162  41.576  0.00  0.00    -0.273 OA
BRANCH  15  18
ATOM     18  CA  LEU A   8       1.235  21.142  42.616  0.00  0.00    +0.149 C 
BRANCH  18  19
ATOM     19  C   LEU A   8       2.168  19.941  42.473  0.00  0.00    +0.241 C 
ATOM     20  O   LEU A   8       2.610  19.363  43.461  0.00  0.00    -0.273 OA
ATOM     21  N   THR A   9       2.454  19.579  41.229  0.00  0.00    -0.296 N 
ATOM     22  H   THR A   9       2.018  20.109  40.448  0.00  0.00    +0.150 HD
BRANCH  21  23
ATOM     23  CA  THR A   9       3.348  18.477  40.903  0.00  0.00    +0.164 C 
BRANCH  23  24
ATOM     24  CB  THR A   9       2.701  17.517  39.871  0.00  0.00    +0.136 C 
ATOM     25  CG2 THR A   9       3.628  16.339  39.578  0.00  0.00    +0.034 C 
BRANCH  24  26
ATOM     26  OG1 THR A   9       1.443  17.034  40.368  0.00  0.00    -0.382 OA
ATOM     27  HG1 THR A   9       1.039  16.423  39.702  0.00  0.00    +0.210 HD
ENDBRANCH  24  26
ENDBRANCH  23  24
BRANCH  23  28
ATOM     28  C   THR A   9       4.528  19.143  40.228  0.00  0.00    +0.229 C 
ATOM     29  O   THR A   9       4.341  20.090  39.459  0.00  0.00    -0.286 OA
ENDBRANCH  23  28
ENDBRANCH  21  23
ENDBRANCH  18  19
BRANCH  18  30
ATOM     30  CB  LEU A   8       1.997  22.310  43.245  0.00  0.00    +0.029 C 
BRANCH  30  31
ATOM     31  CG  LEU A   8       3.269  22.687  42.487  0.00  0.00    +0.002 C 
ATOM     32  CD2 LEU A   8       4.022  23.748  43.262  0.00  0.00    +0.000 C 
ATOM     33  CD1 LEU A   8       2.921  23.187  41.085  0.00  0.00    +0.000 C 
ENDBRANCH  30  31
ENDBRANCH  18  30
ENDBRANCH  15  18
ENDBRANCH  13  14
ENDBRANCH  11  13
ENDBRANCH   4   9
ENDBRANCH   1   2
BRANCH   1  36
ATOM     34  C   MET A   4      -5.341  23.558  38.282  0.00  0.00    +0.241 C 
ATOM     35  O   MET A   4      -6.420  23.350  38.842  0.00  0.00    -0.273 OA
ATOM     36  N   ARG A   5      -4.388  22.633  38.247  0.00  0.00    -0.297 N 
ATOM     37  H   ARG A   5      -3.509  22.808  37.720  0.00  0.00    +0.150 HD
BRANCH  34  38
ATOM     38  CA  MET A   4      -5.057  24.905  37.584  0.00  0.00    +0.149 C 
BRANCH  38  41
ATOM     39  C   ILE A   3      -2.709  25.106  37.033  0.00  0.00    +0.241 C 
ATOM     40  O   ILE A   3      -2.404  25.187  38.223  0.00  0.00    -0.273 OA
ATOM     41  N   MET A   4      -3.963  24.941  36.625  0.00  0.00    -0.297 N 
ATOM     42  H   MET A   4      -4.165  24.837  35.610  0.00  0.00    +0.150 HD
BRANCH  39  43
ATOM     43  CA  ILE A   3      -1.626  25.154  35.958  0.00  0.00    +0.149 C 
BRANCH  43  46
ATOM     44  C   CYS A   2      -1.983  22.942  35.016  0.00  0.00    +0.242 C 
ATOM     45  O   CYS A   2      -1.890  22.405  36.122  0.00  0.00    -0.273 OA
ATOM     46  N   ILE A   3      -1.887  24.253  34.841  0.00  0.00    -0.297 N 
ATOM     47  H   ILE A   3      -2.000  24.648  33.886  0.00  0.00    +0.150 HD
BRANCH  44  48
ATOM     48  CA  CYS A   2      -2.240  22.112  33.765  0.00  0.00    +0.160 C 
BRANCH  48  50
ATOM     49  C   LEU A   1      -0.010  21.241  33.504  0.00  0.00    +0.238 C 
ATOM     50  N   CYS A   2      -1.290  21.009  33.744  0.00  0.00    -0.297 N 
ATOM     51  H   CYS A   2      -1.618  20.038  33.918  0.00  0.00    +0.150 HD
ATOM     52  O   LEU A   1       0.420  22.370  33.213  0.00  0.00    -0.274 OA
BRANCH  49  53
ATOM     53  CA  LEU A   1       0.915  20.035  33.530  0.00  0.00    +0.145 C 
BRANCH  53  54
ATOM     54  N   LEU A   1       1.799  20.160  32.390  0.00  0.00    -0.238 NA
ATOM     55  H   LEU A   1       2.760  20.528  32.538  0.00  0.00    +0.142 HD
ENDBRANCH  53  54
BRANCH  53  56
ATOM     56  CB  LEU A   1       1.727  20.041  34.827  0.00  0.00    +0.026 C 
BRANCH  56  57
ATOM     57  CG  LEU A   1       2.713  18.887  35.051  0.00  0.00    +0.002 C 
ATOM     58  CD2 LEU A   1       3.537  19.113  36.303  0.00  0.00    +0.000 C 
ATOM     59  CD1 LEU A   1       1.931  17.599  35.175  0.00  0.00    +0.000 C 
ENDBRANCH  56  57
ENDBRANCH  53  56
ENDBRANCH  49  53
ENDBRANCH  48  50
BRANCH  48  60
ATOM     60  CB  CYS A   2      -3.660  21.579  33.778  0.00  0.00    +0.098 C 
ATOM     61  SG  CYS A   2      -4.042  20.515  32.356  0.00  0.00    -0.080 S 
ENDBRANCH  48  60
ENDBRANCH  44  48
ENDBRANCH  43  46
BRANCH  43  62
ATOM     62  CB  ILE A   3      -1.411  26.610  35.462  0.00  0.00    +0.027 C 
ATOM     63  CG2 ILE A   3      -1.296  27.576  36.645  0.00  0.00    +0.002 C 
BRANCH  62  64
ATOM     64  CG1 ILE A   3      -0.143  26.668  34.602  0.00  0.00    +0.002 C 
ATOM     65  CD1 ILE A   3       0.061  27.958  33.883  0.00  0.00    +0.000 C 
ENDBRANCH  62  64
ENDBRANCH  43  62
ENDBRANCH  39  43
ENDBRANCH  38  41
BRANCH  38  66
ATOM     66  CB  MET A   4      -6.331  25.518  36.975  0.00  0.00    +0.041 C 
BRANCH  66  67
ATOM     67  CG  MET A   4      -6.216  27.011  36.673  0.00  0.00    +0.060 C 
BRANCH  67  68
ATOM     68  SD  MET A   4      -5.550  28.010  38.058  0.00  0.00    -0.139 S 
ATOM     69  CE  MET A   4      -6.849  27.878  39.248  0.00  0.00    +0.069 C 
ENDBRANCH  67  68
ENDBRANCH  66  67
ENDBRANCH  38  66
ENDBRANCH  34  38
ENDBRANCH   1  36
BRANCH   1  70
ATOM     70  CB  ARG A   5      -3.362  20.473  38.810  0.00  0.00    +0.033 C 
BRANCH  70  71
ATOM     71  CG  ARG A   5      -3.338  19.596  37.599  0.00  0.00    +0.045 C 
BRANCH  71  72
ATOM     72  CD  ARG A   5      -2.069  18.791  37.673  0.00  0.00    +0.174 C 
BRANCH  72  73
ATOM     73  NE  ARG A   5      -1.919  17.892  36.546  0.00  0.00    -0.265 N 
ATOM     74  CZ  ARG A   5      -1.241  16.756  36.599  0.00  0.00    +0.342 C 
ATOM     75  NH2 ARG A   5      -0.657  16.390  37.732  0.00  0.00    -0.292 N 
ATOM     76 HH21 ARG A   5      -0.732  16.995  38.575  0.00  0.00    +0.255 HD
ATOM     77 HH22 ARG A   5      -0.124  15.498  37.778  0.00  0.00    +0.255 HD
ATOM     78  NH1 ARG A   5      -1.131  15.999  35.515  0.00  0.00    -0.292 N 
ATOM     79 HH11 ARG A   5      -0.599  15.107  35.556  0.00  0.00    +0.255 HD
ATOM     80 HH12 ARG A   5      -1.577  16.298  34.624  0.00  0.00    +0.255 HD
ATOM     81  HE  ARG A   5      -2.369  18.154  35.646  0.00  0.00    +0.259 HD
ENDBRANCH  72  73
ENDBRANCH  71  72
ENDBRANCH  70  71
ENDBRANCH   1  70
TORSDOF 33
REMARK  Name = ../refined-set-2016/1atl/1atl_pocket.pdb
REMARK  139 active torsions:
REMARK  status: ('A' for Active; 'I' for Inactive)
REMARK    1  A    between atoms: _1  and  _3
REMARK    2  A    between atoms: _3  and  _4
REMARK    3  A    between atoms: _3  and  _6
REMARK    4  A    between atoms: _6  and  _7
REMARK    5  A    between atoms: _9  and  _11
REMARK    6  A    between atoms: _11  and  _12
REMARK    7  A    between atoms: _11  and  _14
REMARK    8  A    between atoms: _14  and  _15
REMARK    9  A    between atoms: _18  and  _20
REMARK   10  A    between atoms: _20  and  _21
REMARK   11  A    between atoms: _20  and  _23
REMARK   12  A    between atoms: _23  and  _24
REMARK   13  A    between atoms: _27  and  _29
REMARK   14  A    between atoms: _29  and  _30
REMARK   15  A    between atoms: _29  and  _32
REMARK   16  A    between atoms: _32  and  _33
REMARK   17  A    between atoms: _33  and  _34
REMARK   18  A    between atoms: _37  and  _39
REMARK   19  A    between atoms: _39  and  _40
REMARK   20  A    between atoms: _39  and  _42
REMARK   21  A    between atoms: _42  and  _43
REMARK   22  A    between atoms: _43  and  _44
REMARK   23  A    between atoms: _47  and  _49
REMARK   24  A    between atoms: _49  and  _50
REMARK   25  A    between atoms: _49  and  _52
REMARK   26  A    between atoms: _52  and  _53
REMARK   27  A    between atoms: _56  and  _58
REMARK   28  A    between atoms: _58  and  _59
REMARK   29  A    between atoms: _58  and  _61
REMARK   30  A    between atoms: _61  and  _62
REMARK   31  A    between atoms: _65  and  _67
REMARK   32  A    between atoms: _67  and  _68
REMARK   33  A    between atoms: _70  and  _72
REMARK   34  A    between atoms: _72  and  _73
REMARK   35  A    between atoms: _72  and  _75
REMARK   36  A    between atoms: _75  and  _76
REMARK   37  A    between atoms: _79  and  _81
REMARK   38  A    between atoms: _81  and  _82
REMARK   39  A    between atoms: _85  and  _87
REMARK   40  A    between atoms: _87  and  _88
REMARK   41  A    between atoms: _87  and  _90
REMARK   42  A    between atoms: _90  and  _91
REMARK   43  A    between atoms: _94  and  _96
REMARK   44  A    between atoms: _96  and  _97
REMARK   45  A    between atoms: _96  and  _99
REMARK   46  A    between atoms: _102  and  _104
REMARK   47  A    between atoms: _104  and  _105
REMARK   48  A    between atoms: _104  and  _107
REMARK   49  A    between atoms: _107  and  _108
REMARK   50  A    between atoms: _108  and  _109
REMARK   51  A    between atoms: _114  and  _116
REMARK   52  A    between atoms: _116  and  _117
REMARK   53  A    between atoms: _116  and  _119
REMARK   54  A    between atoms: _119  and  _120
REMARK   55  A    between atoms: _125  and  _127
REMARK   56  A    between atoms: _127  and  _128
REMARK   57  A    between atoms: _127  and  _130
REMARK   58  A    between atoms: _130  and  _131
REMARK   59  A    between atoms: _134  and  _136
REMARK   60  A    between atoms: _136  and  _137
REMARK   61  A    between atoms: _136  and  _139
REMARK   62  A    between atoms: _142  and  _144
REMARK   63  A    between atoms: _144  and  _145
REMARK   64  A    between atoms: _144  and  _147
REMARK   65  A    between atoms: _147  and  _148
REMARK   66  A    between atoms: _151  and  _153
REMARK   67  A    between atoms: _153  and  _154
REMARK   68  A    between atoms: _153  and  _156
REMARK   69  A    between atoms: _156  and  _157
REMARK   70  A    between atoms: _157  and  _158
REMARK   71  A    between atoms: _160  and  _162
REMARK   72  A    between atoms: _162  and  _163
REMARK   73  A    between atoms: _166  and  _168
REMARK   74  A    between atoms: _168  and  _169
REMARK   75  A    between atoms: _168  and  _171
REMARK   76  A    between atoms: _171  and  _172
REMARK   77  A    between atoms: _176  and  ZN_323
REMARK   78  A    between atoms: _177  and  _179
REMARK   79  A    between atoms: _179  and  _180
REMARK   80  A    between atoms: _179  and  _182
REMARK   81  A    between atoms: _182  and  _183
REMARK   82  A    between atoms: _183  and  _184
REMARK   83  A    between atoms: _187  and  _189
REMARK   84  A    between atoms: _189  and  _190
REMARK   85  A    between atoms: _189  and  _192
REMARK   86  A    between atoms: _192  and  _193
REMARK   87  A    between atoms: _197  and  ZN_323
REMARK   88  A    between atoms: _198  and  _200
REMARK   89  A    between atoms: _200  and  _201
REMARK   90  A    between atoms: _200  and  _203
REMARK   91  A    between atoms: _203  and  _204
REMARK   92  A    between atoms: _208  and  ZN_323
REMARK   93  A    between atoms: _209  and  _211
REMARK   94  A    between atoms: _211  and  _212
REMARK   95  A    between atoms: _211  and  _214
REMARK   96  A    between atoms: _214  and  _215
REMARK   97  A    between atoms: _218  and  _220
REMARK   98  A    between atoms: _220  and  _221
REMARK   99  A    between atoms: _220  and  _223
REMARK  100  A    between atoms: _223  and  _224
REMARK  101  A    between atoms: _227  and  _229
REMARK  102  A    between atoms: _229  and  _230
REMARK  103  A    between atoms: _229  and  _232
REMARK  104  A    between atoms: _234  and  _236
REMARK  105  A    between atoms: _236  and  _237
REMARK  106  A    between atoms: _236  and  _239
REMARK  107  A    between atoms: _239  and  _240
REMARK  108  A    between atoms: _243  and  _245
REMARK  109  A    between atoms: _245  and  _246
REMARK  110  A    between atoms: _245  and  _248
REMARK  111  A    between atoms: _248  and  _249
REMARK  112  A    between atoms: _249  and  _250
REMARK  113  A    between atoms: _252  and  _254
REMARK  114  A    between atoms: _254  and  _255
REMARK  115  A    between atoms: _254  and  _257
REMARK  116  A    between atoms: _257  and  _258
REMARK  117  A    between atoms: _258  and  _259
REMARK  118  A    between atoms: _259  and  _260
REMARK  119  A    between atoms: _270  and  _271
REMARK  120  A    between atoms: _276  and  _278
REMARK  121  A    between atoms: _278  and  _279
REMARK  122  A    between atoms: _281  and  _283
REMARK  123  A    between atoms: _283  and  _284
REMARK  124  A    between atoms: _283  and  _286
REMARK  125  A    between atoms: _286  and  _287
REMARK  126  A    between atoms: _290  and  _292
REMARK  127  A    between atoms: _292  and  _293
REMARK  128  A    between atoms: _292  and  _295
REMARK  129  A    between atoms: _295  and  _296
REMARK  130  A    between atoms: _299  and  _301
REMARK  131  A    between atoms: _301  and  _302
REMARK  132  A    between atoms: _301  and  _304
REMARK  133  A    between atoms: _304  and  _305
REMARK  134  A    between atoms: _310  and  _311
REMARK  135  A    between atoms: _313  and  _315
REMARK  136  A    between atoms: _315  and  _316
REMARK  137  A    between atoms: _315  and  _318
REMARK  138  A    between atoms: _318  and  _319
REMARK  139  A    between atoms: _319  and  _320
REMARK                            x       y       z     vdW  Elec       q    Type
REMARK                         _______ _______ _______ _____ _____    ______ ____
ROOT
ATOM      1  CA  TYR A   1       3.086  24.140  32.614  0.00  0.00    +0.149 C 
ENDROOT
BRANCH   1   2
ATOM      2  C   TYR A   1       2.310  25.040  31.656  0.00  0.00    +0.239 C 
ATOM      3  N   GLU A   2       1.001  24.799  31.562  0.00  0.00    -0.298 N 
ATOM      4  H   GLU A   2       0.601  24.025  32.130  0.00  0.00    +0.150 HD
ATOM      5  O   TYR A   1       2.890  25.930  31.029  0.00  0.00    -0.274 OA
BRANCH   3   6
ATOM      6  CA  GLU A   2       0.099  25.565  30.703  0.00  0.00    +0.137 C 
BRANCH   6   7
ATOM      7  C   GLU A   2      -1.310  25.584  31.290  0.00  0.00    +0.227 C 
ATOM      8  O   GLU A   2      -1.655  24.768  32.151  0.00  0.00    -0.286 OA
ENDBRANCH   6   7
BRANCH   6   9
ATOM      9  CB  GLU A   2      -0.028  24.916  29.326  0.00  0.00    +0.039 C 
BRANCH   9  10
ATOM     10  CG  GLU A   2       1.160  25.032  28.430  0.00  0.00    +0.116 C 
BRANCH  10  11
ATOM     11  CD  GLU A   2       0.908  24.393  27.081  0.00  0.00    +0.365 C 
ATOM     12  OE2 GLU A   2       1.634  23.441  26.733  0.00  0.00    -0.246 OA
ATOM     13  OE1 GLU A   2      -0.023  24.836  26.379  0.00  0.00    -0.246 OA
ENDBRANCH  10  11
ENDBRANCH   9  10
ENDBRANCH   6   9
ENDBRANCH   3   6
ENDBRANCH   1   2
BRANCH   1  14
ATOM     14  N   TYR A   1       4.434  23.839  32.136  0.00  0.00    -0.238 NA
ATOM     15  H   TYR A   1       5.024  24.631  31.809  0.00  0.00    +0.142 HD
ENDBRANCH   1  14
BRANCH   1  16
ATOM     16  CB  TYR A   1       3.154  24.829  33.970  0.00  0.00    +0.053 C 
BRANCH  16  17
ATOM     17  CG  TYR A   1       3.818  24.011  35.048  0.00  0.00    -0.020 A 
ATOM     18  CD2 TYR A   1       3.061  23.266  35.949  0.00  0.00    -0.001 A 
ATOM     19  CE2 TYR A   1       3.671  22.540  36.971  0.00  0.00    +0.036 A 
ATOM     20  CZ  TYR A   1       5.060  22.553  37.092  0.00  0.00    +0.134 A 
ATOM     21  CE1 TYR A   1       5.830  23.291  36.197  0.00  0.00    +0.036 A 
ATOM     22  CD1 TYR A   1       5.207  24.010  35.188  0.00  0.00    -0.001 A 
BRANCH  20  23
ATOM     23  OH  TYR A   1       5.679  21.832  38.096  0.00  0.00    -0.506 OA
ATOM     24  HH  TYR A   1       5.458  20.872  37.995  0.00  0.00    +0.292 HD
ENDBRANCH  20  23
ENDBRANCH  16  17
ENDBRANCH   1  16
TORSDOF 10
REMARK  Name = ../refined-set-2016/1atl/1atl_pocket.pdb
REMARK  139 active torsions:
REMARK  status: ('A' for Active; 'I' for Inactive)
REMARK    1  A    between atoms: _1  and  _3
REMARK    2  A    between atoms: _3  and  _4
REMARK    3  A    between atoms: _3  and  _6
REMARK    4  A    between atoms: _6  and  _7
REMARK    5  A    between atoms: _9  and  _11
REMARK    6  A    between atoms: _11  and  _12
REMARK    7  A    between atoms: _11  and  _14
REMARK    8  A    between atoms: _14  and  _15
REMARK    9  A    between atoms: _18  and  _20
REMARK   10  A    between atoms: _20  and  _21
REMARK   11  A    between atoms: _20  and  _23
REMARK   12  A    between atoms: _23  and  _24
REMARK   13  A    between atoms: _27  and  _29
REMARK   14  A    between atoms: _29  and  _30
REMARK   15  A    between atoms: _29  and  _32
REMARK   16  A    between atoms: _32  and  _33
REMARK   17  A    between atoms: _33  and  _34
REMARK   18  A    between atoms: _37  and  _39
REMARK   19  A    between atoms: _39  and  _40
REMARK   20  A    between atoms: _39  and  _42
REMARK   21  A    between atoms: _42  and  _43
REMARK   22  A    between atoms: _43  and  _44
REMARK   23  A    between atoms: _47  and  _49
REMARK   24  A    between atoms: _49  and  _50
REMARK   25  A    between atoms: _49  and  _52
REMARK   26  A    between atoms: _52  and  _53
REMARK   27  A    between atoms: _56  and  _58
REMARK   28  A    between atoms: _58  and  _59
REMARK   29  A    between atoms: _58  and  _61
REMARK   30  A    between atoms: _61  and  _62
REMARK   31  A    between atoms: _65  and  _67
REMARK   32  A    between atoms: _67  and  _68
REMARK   33  A    between atoms: _70  and  _72
REMARK   34  A    between atoms: _72  and  _73
REMARK   35  A    between atoms: _72  and  _75
REMARK   36  A    between atoms: _75  and  _76
REMARK   37  A    between atoms: _79  and  _81
REMARK   38  A    between atoms: _81  and  _82
REMARK   39  A    between atoms: _85  and  _87
REMARK   40  A    between atoms: _87  and  _88
REMARK   41  A    between atoms: _87  and  _90
REMARK   42  A    between atoms: _90  and  _91
REMARK   43  A    between atoms: _94  and  _96
REMARK   44  A    between atoms: _96  and  _97
REMARK   45  A    between atoms: _96  and  _99
REMARK   46  A    between atoms: _102  and  _104
REMARK   47  A    between atoms: _104  and  _105
REMARK   48  A    between atoms: _104  and  _107
REMARK   49  A    between atoms: _107  and  _108
REMARK   50  A    between atoms: _108  and  _109
REMARK   51  A    between atoms: _114  and  _116
REMARK   52  A    between atoms: _116  and  _117
REMARK   53  A    between atoms: _116  and  _119
REMARK   54  A    between atoms: _119  and  _120
REMARK   55  A    between atoms: _125  and  _127
REMARK   56  A    between atoms: _127  and  _128
REMARK   57  A    between atoms: _127  and  _130
REMARK   58  A    between atoms: _130  and  _131
REMARK   59  A    between atoms: _134  and  _136
REMARK   60  A    between atoms: _136  and  _137
REMARK   61  A    between atoms: _136  and  _139
REMARK   62  A    between atoms: _142  and  _144
REMARK   63  A    between atoms: _144  and  _145
REMARK   64  A    between atoms: _144  and  _147
REMARK   65  A    between atoms: _147  and  _148
REMARK   66  A    between atoms: _151  and  _153
REMARK   67  A    between atoms: _153  and  _154
REMARK   68  A    between atoms: _153  and  _156
REMARK   69  A    between atoms: _156  and  _157
REMARK   70  A    between atoms: _157  and  _158
REMARK   71  A    between atoms: _160  and  _162
REMARK   72  A    between atoms: _162  and  _163
REMARK   73  A    between atoms: _166  and  _168
REMARK   74  A    between atoms: _168  and  _169
REMARK   75  A    between atoms: _168  and  _171
REMARK   76  A    between atoms: _171  and  _172
REMARK   77  A    between atoms: _176  and  ZN_323
REMARK   78  A    between atoms: _177  and  _179
REMARK   79  A    between atoms: _179  and  _180
REMARK   80  A    between atoms: _179  and  _182
REMARK   81  A    between atoms: _182  and  _183
REMARK   82  A    between atoms: _183  and  _184
REMARK   83  A    between atoms: _187  and  _189
REMARK   84  A    between atoms: _189  and  _190
REMARK   85  A    between atoms: _189  and  _192
REMARK   86  A    between atoms: _192  and  _193
REMARK   87  A    between atoms: _197  and  ZN_323
REMARK   88  A    between atoms: _198  and  _200
REMARK   89  A    between atoms: _200  and  _201
REMARK   90  A    between atoms: _200  and  _203
REMARK   91  A    between atoms: _203  and  _204
REMARK   92  A    between atoms: _208  and  ZN_323
REMARK   93  A    between atoms: _209  and  _211
REMARK   94  A    between atoms: _211  and  _212
REMARK   95  A    between atoms: _211  and  _214
REMARK   96  A    between atoms: _214  and  _215
REMARK   97  A    between atoms: _218  and  _220
REMARK   98  A    between atoms: _220  and  _221
REMARK   99  A    between atoms: _220  and  _223
REMARK  100  A    between atoms: _223  and  _224
REMARK  101  A    between atoms: _227  and  _229
REMARK  102  A    between atoms: _229  and  _230
REMARK  103  A    between atoms: _229  and  _232
REMARK  104  A    between atoms: _234  and  _236
REMARK  105  A    between atoms: _236  and  _237
REMARK  106  A    between atoms: _236  and  _239
REMARK  107  A    between atoms: _239  and  _240
REMARK  108  A    between atoms: _243  and  _245
REMARK  109  A    between atoms: _245  and  _246
REMARK  110  A    between atoms: _245  and  _248
REMARK  111  A    between atoms: _248  and  _249
REMARK  112  A    between atoms: _249  and  _250
REMARK  113  A    between atoms: _252  and  _254
REMARK  114  A    between atoms: _254  and  _255
REMARK  115  A    between atoms: _254  and  _257
REMARK  116  A    between atoms: _257  and  _258
REMARK  117  A    between atoms: _258  and  _259
REMARK  118  A    between atoms: _259  and  _260
REMARK  119  A    between atoms: _270  and  _271
REMARK  120  A    between atoms: _276  and  _278
REMARK  121  A    between atoms: _278  and  _279
REMARK  122  A    between atoms: _281  and  _283
REMARK  123  A    between atoms: _283  and  _284
REMARK  124  A    between atoms: _283  and  _286
REMARK  125  A    between atoms: _286  and  _287
REMARK  126  A    between atoms: _290  and  _292
REMARK  127  A    between atoms: _292  and  _293
REMARK  128  A    between atoms: _292  and  _295
REMARK  129  A    between atoms: _295  and  _296
REMARK  130  A    between atoms: _299  and  _301
REMARK  131  A    between atoms: _301  and  _302
REMARK  132  A    between atoms: _301  and  _304
REMARK  133  A    between atoms: _304  and  _305
REMARK  134  A    between atoms: _310  and  _311
REMARK  135  A    between atoms: _313  and  _315
REMARK  136  A    between atoms: _315  and  _316
REMARK  137  A    between atoms: _315  and  _318
REMARK  138  A    between atoms: _318  and  _319
REMARK  139  A    between atoms: _319  and  _320
REMARK                            x       y       z     vdW  Elec       q    Type
REMARK                         _______ _______ _______ _____ _____    ______ ____
ROOT
ATOM      1  O   HOH     1      -5.135  25.102  33.899  0.00  0.00    +0.000 OA
ENDROOT
TORSDOF 0
REMARK  Name = ../refined-set-2016/1atl/1atl_pocket.pdb
REMARK  139 active torsions:
REMARK  status: ('A' for Active; 'I' for Inactive)
REMARK    1  A    between atoms: _1  and  _3
REMARK    2  A    between atoms: _3  and  _4
REMARK    3  A    between atoms: _3  and  _6
REMARK    4  A    between atoms: _6  and  _7
REMARK    5  A    between atoms: _9  and  _11
REMARK    6  A    between atoms: _11  and  _12
REMARK    7  A    between atoms: _11  and  _14
REMARK    8  A    between atoms: _14  and  _15
REMARK    9  A    between atoms: _18  and  _20
REMARK   10  A    between atoms: _20  and  _21
REMARK   11  A    between atoms: _20  and  _23
REMARK   12  A    between atoms: _23  and  _24
REMARK   13  A    between atoms: _27  and  _29
REMARK   14  A    between atoms: _29  and  _30
REMARK   15  A    between atoms: _29  and  _32
REMARK   16  A    between atoms: _32  and  _33
REMARK   17  A    between atoms: _33  and  _34
REMARK   18  A    between atoms: _37  and  _39
REMARK   19  A    between atoms: _39  and  _40
REMARK   20  A    between atoms: _39  and  _42
REMARK   21  A    between atoms: _42  and  _43
REMARK   22  A    between atoms: _43  and  _44
REMARK   23  A    between atoms: _47  and  _49
REMARK   24  A    between atoms: _49  and  _50
REMARK   25  A    between atoms: _49  and  _52
REMARK   26  A    between atoms: _52  and  _53
REMARK   27  A    between atoms: _56  and  _58
REMARK   28  A    between atoms: _58  and  _59
REMARK   29  A    between atoms: _58  and  _61
REMARK   30  A    between atoms: _61  and  _62
REMARK   31  A    between atoms: _65  and  _67
REMARK   32  A    between atoms: _67  and  _68
REMARK   33  A    between atoms: _70  and  _72
REMARK   34  A    between atoms: _72  and  _73
REMARK   35  A    between atoms: _72  and  _75
REMARK   36  A    between atoms: _75  and  _76
REMARK   37  A    between atoms: _79  and  _81
REMARK   38  A    between atoms: _81  and  _82
REMARK   39  A    between atoms: _85  and  _87
REMARK   40  A    between atoms: _87  and  _88
REMARK   41  A    between atoms: _87  and  _90
REMARK   42  A    between atoms: _90  and  _91
REMARK   43  A    between atoms: _94  and  _96
REMARK   44  A    between atoms: _96  and  _97
REMARK   45  A    between atoms: _96  and  _99
REMARK   46  A    between atoms: _102  and  _104
REMARK   47  A    between atoms: _104  and  _105
REMARK   48  A    between atoms: _104  and  _107
REMARK   49  A    between atoms: _107  and  _108
REMARK   50  A    between atoms: _108  and  _109
REMARK   51  A    between atoms: _114  and  _116
REMARK   52  A    between atoms: _116  and  _117
REMARK   53  A    between atoms: _116  and  _119
REMARK   54  A    between atoms: _119  and  _120
REMARK   55  A    between atoms: _125  and  _127
REMARK   56  A    between atoms: _127  and  _128
REMARK   57  A    between atoms: _127  and  _130
REMARK   58  A    between atoms: _130  and  _131
REMARK   59  A    between atoms: _134  and  _136
REMARK   60  A    between atoms: _136  and  _137
REMARK   61  A    between atoms: _136  and  _139
REMARK   62  A    between atoms: _142  and  _144
REMARK   63  A    between atoms: _144  and  _145
REMARK   64  A    between atoms: _144  and  _147
REMARK   65  A    between atoms: _147  and  _148
REMARK   66  A    between atoms: _151  and  _153
REMARK   67  A    between atoms: _153  and  _154
REMARK   68  A    between atoms: _153  and  _156
REMARK   69  A    between atoms: _156  and  _157
REMARK   70  A    between atoms: _157  and  _158
REMARK   71  A    between atoms: _160  and  _162
REMARK   72  A    between atoms: _162  and  _163
REMARK   73  A    between atoms: _166  and  _168
REMARK   74  A    between atoms: _168  and  _169
REMARK   75  A    between atoms: _168  and  _171
REMARK   76  A    between atoms: _171  and  _172
REMARK   77  A    between atoms: _176  and  ZN_323
REMARK   78  A    between atoms: _177  and  _179
REMARK   79  A    between atoms: _179  and  _180
REMARK   80  A    between atoms: _179  and  _182
REMARK   81  A    between atoms: _182  and  _183
REMARK   82  A    between atoms: _183  and  _184
REMARK   83  A    between atoms: _187  and  _189
REMARK   84  A    between atoms: _189  and  _190
REMARK   85  A    between atoms: _189  and  _192
REMARK   86  A    between atoms: _192  and  _193
REMARK   87  A    between atoms: _197  and  ZN_323
REMARK   88  A    between atoms: _198  and  _200
REMARK   89  A    between atoms: _200  and  _201
REMARK   90  A    between atoms: _200  and  _203
REMARK   91  A    between atoms: _203  and  _204
REMARK   92  A    between atoms: _208  and  ZN_323
REMARK   93  A    between atoms: _209  and  _211
REMARK   94  A    between atoms: _211  and  _212
REMARK   95  A    between atoms: _211  and  _214
REMARK   96  A    between atoms: _214  and  _215
REMARK   97  A    between atoms: _218  and  _220
REMARK   98  A    between atoms: _220  and  _221
REMARK   99  A    between atoms: _220  and  _223
REMARK  100  A    between atoms: _223  and  _224
REMARK  101  A    between atoms: _227  and  _229
REMARK  102  A    between atoms: _229  and  _230
REMARK  103  A    between atoms: _229  and  _232
REMARK  104  A    between atoms: _234  and  _236
REMARK  105  A    between atoms: _236  and  _237
REMARK  106  A    between atoms: _236  and  _239
REMARK  107  A    between atoms: _239  and  _240
REMARK  108  A    between atoms: _243  and  _245
REMARK  109  A    between atoms: _245  and  _246
REMARK  110  A    between atoms: _245  and  _248
REMARK  111  A    between atoms: _248  and  _249
REMARK  112  A    between atoms: _249  and  _250
REMARK  113  A    between atoms: _252  and  _254
REMARK  114  A    between atoms: _254  and  _255
REMARK  115  A    between atoms: _254  and  _257
REMARK  116  A    between atoms: _257  and  _258
REMARK  117  A    between atoms: _258  and  _259
REMARK  118  A    between atoms: _259  and  _260
REMARK  119  A    between atoms: _270  and  _271
REMARK  120  A    between atoms: _276  and  _278
REMARK  121  A    between atoms: _278  and  _279
REMARK  122  A    between atoms: _281  and  _283
REMARK  123  A    between atoms: _283  and  _284
REMARK  124  A    between atoms: _283  and  _286
REMARK  125  A    between atoms: _286  and  _287
REMARK  126  A    between atoms: _290  and  _292
REMARK  127  A    between atoms: _292  and  _293
REMARK  128  A    between atoms: _292  and  _295
REMARK  129  A    between atoms: _295  and  _296
REMARK  130  A    between atoms: _299  and  _301
REMARK  131  A    between atoms: _301  and  _302
REMARK  132  A    between atoms: _301  and  _304
REMARK  133  A    between atoms: _304  and  _305
REMARK  134  A    between atoms: _310  and  _311
REMARK  135  A    between atoms: _313  and  _315
REMARK  136  A    between atoms: _315  and  _316
REMARK  137  A    between atoms: _315  and  _318
REMARK  138  A    between atoms: _318  and  _319
REMARK  139  A    between atoms: _319  and  _320
REMARK                            x       y       z     vdW  Elec       q    Type
REMARK                         _______ _______ _______ _____ _____    ______ ____
ROOT
ATOM      1  O   HOH     1       0.084  22.414  37.729  0.00  0.00    +0.000 OA
ENDROOT
TORSDOF 0
REMARK  Name = ../refined-set-2016/1atl/1atl_pocket.pdb
REMARK  139 active torsions:
REMARK  status: ('A' for Active; 'I' for Inactive)
REMARK    1  A    between atoms: _1  and  _3
REMARK    2  A    between atoms: _3  and  _4
REMARK    3  A    between atoms: _3  and  _6
REMARK    4  A    between atoms: _6  and  _7
REMARK    5  A    between atoms: _9  and  _11
REMARK    6  A    between atoms: _11  and  _12
REMARK    7  A    between atoms: _11  and  _14
REMARK    8  A    between atoms: _14  and  _15
REMARK    9  A    between atoms: _18  and  _20
REMARK   10  A    between atoms: _20  and  _21
REMARK   11  A    between atoms: _20  and  _23
REMARK   12  A    between atoms: _23  and  _24
REMARK   13  A    between atoms: _27  and  _29
REMARK   14  A    between atoms: _29  and  _30
REMARK   15  A    between atoms: _29  and  _32
REMARK   16  A    between atoms: _32  and  _33
REMARK   17  A    between atoms: _33  and  _34
REMARK   18  A    between atoms: _37  and  _39
REMARK   19  A    between atoms: _39  and  _40
REMARK   20  A    between atoms: _39  and  _42
REMARK   21  A    between atoms: _42  and  _43
REMARK   22  A    between atoms: _43  and  _44
REMARK   23  A    between atoms: _47  and  _49
REMARK   24  A    between atoms: _49  and  _50
REMARK   25  A    between atoms: _49  and  _52
REMARK   26  A    between atoms: _52  and  _53
REMARK   27  A    between atoms: _56  and  _58
REMARK   28  A    between atoms: _58  and  _59
REMARK   29  A    between atoms: _58  and  _61
REMARK   30  A    between atoms: _61  and  _62
REMARK   31  A    between atoms: _65  and  _67
REMARK   32  A    between atoms: _67  and  _68
REMARK   33  A    between atoms: _70  and  _72
REMARK   34  A    between atoms: _72  and  _73
REMARK   35  A    between atoms: _72  and  _75
REMARK   36  A    between atoms: _75  and  _76
REMARK   37  A    between atoms: _79  and  _81
REMARK   38  A    between atoms: _81  and  _82
REMARK   39  A    between atoms: _85  and  _87
REMARK   40  A    between atoms: _87  and  _88
REMARK   41  A    between atoms: _87  and  _90
REMARK   42  A    between atoms: _90  and  _91
REMARK   43  A    between atoms: _94  and  _96
REMARK   44  A    between atoms: _96  and  _97
REMARK   45  A    between atoms: _96  and  _99
REMARK   46  A    between atoms: _102  and  _104
REMARK   47  A    between atoms: _104  and  _105
REMARK   48  A    between atoms: _104  and  _107
REMARK   49  A    between atoms: _107  and  _108
REMARK   50  A    between atoms: _108  and  _109
REMARK   51  A    between atoms: _114  and  _116
REMARK   52  A    between atoms: _116  and  _117
REMARK   53  A    between atoms: _116  and  _119
REMARK   54  A    between atoms: _119  and  _120
REMARK   55  A    between atoms: _125  and  _127
REMARK   56  A    between atoms: _127  and  _128
REMARK   57  A    between atoms: _127  and  _130
REMARK   58  A    between atoms: _130  and  _131
REMARK   59  A    between atoms: _134  and  _136
REMARK   60  A    between atoms: _136  and  _137
REMARK   61  A    between atoms: _136  and  _139
REMARK   62  A    between atoms: _142  and  _144
REMARK   63  A    between atoms: _144  and  _145
REMARK   64  A    between atoms: _144  and  _147
REMARK   65  A    between atoms: _147  and  _148
REMARK   66  A    between atoms: _151  and  _153
REMARK   67  A    between atoms: _153  and  _154
REMARK   68  A    between atoms: _153  and  _156
REMARK   69  A    between atoms: _156  and  _157
REMARK   70  A    between atoms: _157  and  _158
REMARK   71  A    between atoms: _160  and  _162
REMARK   72  A    between atoms: _162  and  _163
REMARK   73  A    between atoms: _166  and  _168
REMARK   74  A    between atoms: _168  and  _169
REMARK   75  A    between atoms: _168  and  _171
REMARK   76  A    between atoms: _171  and  _172
REMARK   77  A    between atoms: _176  and  ZN_323
REMARK   78  A    between atoms: _177  and  _179
REMARK   79  A    between atoms: _179  and  _180
REMARK   80  A    between atoms: _179  and  _182
REMARK   81  A    between atoms: _182  and  _183
REMARK   82  A    between atoms: _183  and  _184
REMARK   83  A    between atoms: _187  and  _189
REMARK   84  A    between atoms: _189  and  _190
REMARK   85  A    between atoms: _189  and  _192
REMARK   86  A    between atoms: _192  and  _193
REMARK   87  A    between atoms: _197  and  ZN_323
REMARK   88  A    between atoms: _198  and  _200
REMARK   89  A    between atoms: _200  and  _201
REMARK   90  A    between atoms: _200  and  _203
REMARK   91  A    between atoms: _203  and  _204
REMARK   92  A    between atoms: _208  and  ZN_323
REMARK   93  A    between atoms: _209  and  _211
REMARK   94  A    between atoms: _211  and  _212
REMARK   95  A    between atoms: _211  and  _214
REMARK   96  A    between atoms: _214  and  _215
REMARK   97  A    between atoms: _218  and  _220
REMARK   98  A    between atoms: _220  and  _221
REMARK   99  A    between atoms: _220  and  _223
REMARK  100  A    between atoms: _223  and  _224
REMARK  101  A    between atoms: _227  and  _229
REMARK  102  A    between atoms: _229  and  _230
REMARK  103  A    between atoms: _229  and  _232
REMARK  104  A    between atoms: _234  and  _236
REMARK  105  A    between atoms: _236  and  _237
REMARK  106  A    between atoms: _236  and  _239
REMARK  107  A    between atoms: _239  and  _240
REMARK  108  A    between atoms: _243  and  _245
REMARK  109  A    between atoms: _245  and  _246
REMARK  110  A    between atoms: _245  and  _248
REMARK  111  A    between atoms: _248  and  _249
REMARK  112  A    between atoms: _249  and  _250
REMARK  113  A    between atoms: _252  and  _254
REMARK  114  A    between atoms: _254  and  _255
REMARK  115  A    between atoms: _254  and  _257
REMARK  116  A    between atoms: _257  and  _258
REMARK  117  A    between atoms: _258  and  _259
REMARK  118  A    between atoms: _259  and  _260
REMARK  119  A    between atoms: _270  and  _271
REMARK  120  A    between atoms: _276  and  _278
REMARK  121  A    between atoms: _278  and  _279
REMARK  122  A    between atoms: _281  and  _283
REMARK  123  A    between atoms: _283  and  _284
REMARK  124  A    between atoms: _283  and  _286
REMARK  125  A    between atoms: _286  and  _287
REMARK  126  A    between atoms: _290  and  _292
REMARK  127  A    between atoms: _292  and  _293
REMARK  128  A    between atoms: _292  and  _295
REMARK  129  A    between atoms: _295  and  _296
REMARK  130  A    between atoms: _299  and  _301
REMARK  131  A    between atoms: _301  and  _302
REMARK  132  A    between atoms: _301  and  _304
REMARK  133  A    between atoms: _304  and  _305
REMARK  134  A    between atoms: _310  and  _311
REMARK  135  A    between atoms: _313  and  _315
REMARK  136  A    between atoms: _315  and  _316
REMARK  137  A    between atoms: _315  and  _318
REMARK  138  A    between atoms: _318  and  _319
REMARK  139  A    between atoms: _319  and  _320
REMARK                            x       y       z     vdW  Elec       q    Type
REMARK                         _______ _______ _______ _____ _____    ______ ____
ROOT
ATOM      1  O   HOH     1     -11.670  25.590  41.990  0.00  0.00    +0.000 OA
ENDROOT
TORSDOF 0
REMARK  Name = ../refined-set-2016/1atl/1atl_pocket.pdb
REMARK  139 active torsions:
REMARK  status: ('A' for Active; 'I' for Inactive)
REMARK    1  A    between atoms: _1  and  _3
REMARK    2  A    between atoms: _3  and  _4
REMARK    3  A    between atoms: _3  and  _6
REMARK    4  A    between atoms: _6  and  _7
REMARK    5  A    between atoms: _9  and  _11
REMARK    6  A    between atoms: _11  and  _12
REMARK    7  A    between atoms: _11  and  _14
REMARK    8  A    between atoms: _14  and  _15
REMARK    9  A    between atoms: _18  and  _20
REMARK   10  A    between atoms: _20  and  _21
REMARK   11  A    between atoms: _20  and  _23
REMARK   12  A    between atoms: _23  and  _24
REMARK   13  A    between atoms: _27  and  _29
REMARK   14  A    between atoms: _29  and  _30
REMARK   15  A    between atoms: _29  and  _32
REMARK   16  A    between atoms: _32  and  _33
REMARK   17  A    between atoms: _33  and  _34
REMARK   18  A    between atoms: _37  and  _39
REMARK   19  A    between atoms: _39  and  _40
REMARK   20  A    between atoms: _39  and  _42
REMARK   21  A    between atoms: _42  and  _43
REMARK   22  A    between atoms: _43  and  _44
REMARK   23  A    between atoms: _47  and  _49
REMARK   24  A    between atoms: _49  and  _50
REMARK   25  A    between atoms: _49  and  _52
REMARK   26  A    between atoms: _52  and  _53
REMARK   27  A    between atoms: _56  and  _58
REMARK   28  A    between atoms: _58  and  _59
REMARK   29  A    between atoms: _58  and  _61
REMARK   30  A    between atoms: _61  and  _62
REMARK   31  A    between atoms: _65  and  _67
REMARK   32  A    between atoms: _67  and  _68
REMARK   33  A    between atoms: _70  and  _72
REMARK   34  A    between atoms: _72  and  _73
REMARK   35  A    between atoms: _72  and  _75
REMARK   36  A    between atoms: _75  and  _76
REMARK   37  A    between atoms: _79  and  _81
REMARK   38  A    between atoms: _81  and  _82
REMARK   39  A    between atoms: _85  and  _87
REMARK   40  A    between atoms: _87  and  _88
REMARK   41  A    between atoms: _87  and  _90
REMARK   42  A    between atoms: _90  and  _91
REMARK   43  A    between atoms: _94  and  _96
REMARK   44  A    between atoms: _96  and  _97
REMARK   45  A    between atoms: _96  and  _99
REMARK   46  A    between atoms: _102  and  _104
REMARK   47  A    between atoms: _104  and  _105
REMARK   48  A    between atoms: _104  and  _107
REMARK   49  A    between atoms: _107  and  _108
REMARK   50  A    between atoms: _108  and  _109
REMARK   51  A    between atoms: _114  and  _116
REMARK   52  A    between atoms: _116  and  _117
REMARK   53  A    between atoms: _116  and  _119
REMARK   54  A    between atoms: _119  and  _120
REMARK   55  A    between atoms: _125  and  _127
REMARK   56  A    between atoms: _127  and  _128
REMARK   57  A    between atoms: _127  and  _130
REMARK   58  A    between atoms: _130  and  _131
REMARK   59  A    between atoms: _134  and  _136
REMARK   60  A    between atoms: _136  and  _137
REMARK   61  A    between atoms: _136  and  _139
REMARK   62  A    between atoms: _142  and  _144
REMARK   63  A    between atoms: _144  and  _145
REMARK   64  A    between atoms: _144  and  _147
REMARK   65  A    between atoms: _147  and  _148
REMARK   66  A    between atoms: _151  and  _153
REMARK   67  A    between atoms: _153  and  _154
REMARK   68  A    between atoms: _153  and  _156
REMARK   69  A    between atoms: _156  and  _157
REMARK   70  A    between atoms: _157  and  _158
REMARK   71  A    between atoms: _160  and  _162
REMARK   72  A    between atoms: _162  and  _163
REMARK   73  A    between atoms: _166  and  _168
REMARK   74  A    between atoms: _168  and  _169
REMARK   75  A    between atoms: _168  and  _171
REMARK   76  A    between atoms: _171  and  _172
REMARK   77  A    between atoms: _176  and  ZN_323
REMARK   78  A    between atoms: _177  and  _179
REMARK   79  A    between atoms: _179  and  _180
REMARK   80  A    between atoms: _179  and  _182
REMARK   81  A    between atoms: _182  and  _183
REMARK   82  A    between atoms: _183  and  _184
REMARK   83  A    between atoms: _187  and  _189
REMARK   84  A    between atoms: _189  and  _190
REMARK   85  A    between atoms: _189  and  _192
REMARK   86  A    between atoms: _192  and  _193
REMARK   87  A    between atoms: _197  and  ZN_323
REMARK   88  A    between atoms: _198  and  _200
REMARK   89  A    between atoms: _200  and  _201
REMARK   90  A    between atoms: _200  and  _203
REMARK   91  A    between atoms: _203  and  _204
REMARK   92  A    between atoms: _208  and  ZN_323
REMARK   93  A    between atoms: _209  and  _211
REMARK   94  A    between atoms: _211  and  _212
REMARK   95  A    between atoms: _211  and  _214
REMARK   96  A    between atoms: _214  and  _215
REMARK   97  A    between atoms: _218  and  _220
REMARK   98  A    between atoms: _220  and  _221
REMARK   99  A    between atoms: _220  and  _223
REMARK  100  A    between atoms: _223  and  _224
REMARK  101  A    between atoms: _227  and  _229
REMARK  102  A    between atoms: _229  and  _230
REMARK  103  A    between atoms: _229  and  _232
REMARK  104  A    between atoms: _234  and  _236
REMARK  105  A    between atoms: _236  and  _237
REMARK  106  A    between atoms: _236  and  _239
REMARK  107  A    between atoms: _239  and  _240
REMARK  108  A    between atoms: _243  and  _245
REMARK  109  A    between atoms: _245  and  _246
REMARK  110  A    between atoms: _245  and  _248
REMARK  111  A    between atoms: _248  and  _249
REMARK  112  A    between atoms: _249  and  _250
REMARK  113  A    between atoms: _252  and  _254
REMARK  114  A    between atoms: _254  and  _255
REMARK  115  A    between atoms: _254  and  _257
REMARK  116  A    between atoms: _257  and  _258
REMARK  117  A    between atoms: _258  and  _259
REMARK  118  A    between atoms: _259  and  _260
REMARK  119  A    between atoms: _270  and  _271
REMARK  120  A    between atoms: _276  and  _278
REMARK  121  A    between atoms: _278  and  _279
REMARK  122  A    between atoms: _281  and  _283
REMARK  123  A    between atoms: _283  and  _284
REMARK  124  A    between atoms: _283  and  _286
REMARK  125  A    between atoms: _286  and  _287
REMARK  126  A    between atoms: _290  and  _292
REMARK  127  A    between atoms: _292  and  _293
REMARK  128  A    between atoms: _292  and  _295
REMARK  129  A    between atoms: _295  and  _296
REMARK  130  A    between atoms: _299  and  _301
REMARK  131  A    between atoms: _301  and  _302
REMARK  132  A    between atoms: _301  and  _304
REMARK  133  A    between atoms: _304  and  _305
REMARK  134  A    between atoms: _310  and  _311
REMARK  135  A    between atoms: _313  and  _315
REMARK  136  A    between atoms: _315  and  _316
REMARK  137  A    between atoms: _315  and  _318
REMARK  138  A    between atoms: _318  and  _319
REMARK  139  A    between atoms: _319  and  _320
REMARK                            x       y       z     vdW  Elec       q    Type
REMARK                         _______ _______ _______ _____ _____    ______ ____
ROOT
ATOM      1  O   HOH     1       1.945  24.876  54.274  0.00  0.00    +0.000 OA
ENDROOT
TORSDOF 0
REMARK  Name = ../refined-set-2016/1atl/1atl_pocket.pdb
REMARK  139 active torsions:
REMARK  status: ('A' for Active; 'I' for Inactive)
REMARK    1  A    between atoms: _1  and  _3
REMARK    2  A    between atoms: _3  and  _4
REMARK    3  A    between atoms: _3  and  _6
REMARK    4  A    between atoms: _6  and  _7
REMARK    5  A    between atoms: _9  and  _11
REMARK    6  A    between atoms: _11  and  _12
REMARK    7  A    between atoms: _11  and  _14
REMARK    8  A    between atoms: _14  and  _15
REMARK    9  A    between atoms: _18  and  _20
REMARK   10  A    between atoms: _20  and  _21
REMARK   11  A    between atoms: _20  and  _23
REMARK   12  A    between atoms: _23  and  _24
REMARK   13  A    between atoms: _27  and  _29
REMARK   14  A    between atoms: _29  and  _30
REMARK   15  A    between atoms: _29  and  _32
REMARK   16  A    between atoms: _32  and  _33
REMARK   17  A    between atoms: _33  and  _34
REMARK   18  A    between atoms: _37  and  _39
REMARK   19  A    between atoms: _39  and  _40
REMARK   20  A    between atoms: _39  and  _42
REMARK   21  A    between atoms: _42  and  _43
REMARK   22  A    between atoms: _43  and  _44
REMARK   23  A    between atoms: _47  and  _49
REMARK   24  A    between atoms: _49  and  _50
REMARK   25  A    between atoms: _49  and  _52
REMARK   26  A    between atoms: _52  and  _53
REMARK   27  A    between atoms: _56  and  _58
REMARK   28  A    between atoms: _58  and  _59
REMARK   29  A    between atoms: _58  and  _61
REMARK   30  A    between atoms: _61  and  _62
REMARK   31  A    between atoms: _65  and  _67
REMARK   32  A    between atoms: _67  and  _68
REMARK   33  A    between atoms: _70  and  _72
REMARK   34  A    between atoms: _72  and  _73
REMARK   35  A    between atoms: _72  and  _75
REMARK   36  A    between atoms: _75  and  _76
REMARK   37  A    between atoms: _79  and  _81
REMARK   38  A    between atoms: _81  and  _82
REMARK   39  A    between atoms: _85  and  _87
REMARK   40  A    between atoms: _87  and  _88
REMARK   41  A    between atoms: _87  and  _90
REMARK   42  A    between atoms: _90  and  _91
REMARK   43  A    between atoms: _94  and  _96
REMARK   44  A    between atoms: _96  and  _97
REMARK   45  A    between atoms: _96  and  _99
REMARK   46  A    between atoms: _102  and  _104
REMARK   47  A    between atoms: _104  and  _105
REMARK   48  A    between atoms: _104  and  _107
REMARK   49  A    between atoms: _107  and  _108
REMARK   50  A    between atoms: _108  and  _109
REMARK   51  A    between atoms: _114  and  _116
REMARK   52  A    between atoms: _116  and  _117
REMARK   53  A    between atoms: _116  and  _119
REMARK   54  A    between atoms: _119  and  _120
REMARK   55  A    between atoms: _125  and  _127
REMARK   56  A    between atoms: _127  and  _128
REMARK   57  A    between atoms: _127  and  _130
REMARK   58  A    between atoms: _130  and  _131
REMARK   59  A    between atoms: _134  and  _136
REMARK   60  A    between atoms: _136  and  _137
REMARK   61  A    between atoms: _136  and  _139
REMARK   62  A    between atoms: _142  and  _144
REMARK   63  A    between atoms: _144  and  _145
REMARK   64  A    between atoms: _144  and  _147
REMARK   65  A    between atoms: _147  and  _148
REMARK   66  A    between atoms: _151  and  _153
REMARK   67  A    between atoms: _153  and  _154
REMARK   68  A    between atoms: _153  and  _156
REMARK   69  A    between atoms: _156  and  _157
REMARK   70  A    between atoms: _157  and  _158
REMARK   71  A    between atoms: _160  and  _162
REMARK   72  A    between atoms: _162  and  _163
REMARK   73  A    between atoms: _166  and  _168
REMARK   74  A    between atoms: _168  and  _169
REMARK   75  A    between atoms: _168  and  _171
REMARK   76  A    between atoms: _171  and  _172
REMARK   77  A    between atoms: _176  and  ZN_323
REMARK   78  A    between atoms: _177  and  _179
REMARK   79  A    between atoms: _179  and  _180
REMARK   80  A    between atoms: _179  and  _182
REMARK   81  A    between atoms: _182  and  _183
REMARK   82  A    between atoms: _183  and  _184
REMARK   83  A    between atoms: _187  and  _189
REMARK   84  A    between atoms: _189  and  _190
REMARK   85  A    between atoms: _189  and  _192
REMARK   86  A    between atoms: _192  and  _193
REMARK   87  A    between atoms: _197  and  ZN_323
REMARK   88  A    between atoms: _198  and  _200
REMARK   89  A    between atoms: _200  and  _201
REMARK   90  A    between atoms: _200  and  _203
REMARK   91  A    between atoms: _203  and  _204
REMARK   92  A    between atoms: _208  and  ZN_323
REMARK   93  A    between atoms: _209  and  _211
REMARK   94  A    between atoms: _211  and  _212
REMARK   95  A    between atoms: _211  and  _214
REMARK   96  A    between atoms: _214  and  _215
REMARK   97  A    between atoms: _218  and  _220
REMARK   98  A    between atoms: _220  and  _221
REMARK   99  A    between atoms: _220  and  _223
REMARK  100  A    between atoms: _223  and  _224
REMARK  101  A    between atoms: _227  and  _229
REMARK  102  A    between atoms: _229  and  _230
REMARK  103  A    between atoms: _229  and  _232
REMARK  104  A    between atoms: _234  and  _236
REMARK  105  A    between atoms: _236  and  _237
REMARK  106  A    between atoms: _236  and  _239
REMARK  107  A    between atoms: _239  and  _240
REMARK  108  A    between atoms: _243  and  _245
REMARK  109  A    between atoms: _245  and  _246
REMARK  110  A    between atoms: _245  and  _248
REMARK  111  A    between atoms: _248  and  _249
REMARK  112  A    between atoms: _249  and  _250
REMARK  113  A    between atoms: _252  and  _254
REMARK  114  A    between atoms: _254  and  _255
REMARK  115  A    between atoms: _254  and  _257
REMARK  116  A    between atoms: _257  and  _258
REMARK  117  A    between atoms: _258  and  _259
REMARK  118  A    between atoms: _259  and  _260
REMARK  119  A    between atoms: _270  and  _271
REMARK  120  A    between atoms: _276  and  _278
REMARK  121  A    between atoms: _278  and  _279
REMARK  122  A    between atoms: _281  and  _283
REMARK  123  A    between atoms: _283  and  _284
REMARK  124  A    between atoms: _283  and  _286
REMARK  125  A    between atoms: _286  and  _287
REMARK  126  A    between atoms: _290  and  _292
REMARK  127  A    between atoms: _292  and  _293
REMARK  128  A    between atoms: _292  and  _295
REMARK  129  A    between atoms: _295  and  _296
REMARK  130  A    between atoms: _299  and  _301
REMARK  131  A    between atoms: _301  and  _302
REMARK  132  A    between atoms: _301  and  _304
REMARK  133  A    between atoms: _304  and  _305
REMARK  134  A    between atoms: _310  and  _311
REMARK  135  A    between atoms: _313  and  _315
REMARK  136  A    between atoms: _315  and  _316
REMARK  137  A    between atoms: _315  and  _318
REMARK  138  A    between atoms: _318  and  _319
REMARK  139  A    between atoms: _319  and  _320
REMARK                            x       y       z     vdW  Elec       q    Type
REMARK                         _______ _______ _______ _____ _____    ______ ____
ROOT
ATOM      1  O   HOH     1       0.657  20.436  39.304  0.00  0.00    +0.000 OA
ENDROOT
TORSDOF 0
REMARK  Name = ../refined-set-2016/1atl/1atl_pocket.pdb
REMARK  139 active torsions:
REMARK  status: ('A' for Active; 'I' for Inactive)
REMARK    1  A    between atoms: _1  and  _3
REMARK    2  A    between atoms: _3  and  _4
REMARK    3  A    between atoms: _3  and  _6
REMARK    4  A    between atoms: _6  and  _7
REMARK    5  A    between atoms: _9  and  _11
REMARK    6  A    between atoms: _11  and  _12
REMARK    7  A    between atoms: _11  and  _14
REMARK    8  A    between atoms: _14  and  _15
REMARK    9  A    between atoms: _18  and  _20
REMARK   10  A    between atoms: _20  and  _21
REMARK   11  A    between atoms: _20  and  _23
REMARK   12  A    between atoms: _23  and  _24
REMARK   13  A    between atoms: _27  and  _29
REMARK   14  A    between atoms: _29  and  _30
REMARK   15  A    between atoms: _29  and  _32
REMARK   16  A    between atoms: _32  and  _33
REMARK   17  A    between atoms: _33  and  _34
REMARK   18  A    between atoms: _37  and  _39
REMARK   19  A    between atoms: _39  and  _40
REMARK   20  A    between atoms: _39  and  _42
REMARK   21  A    between atoms: _42  and  _43
REMARK   22  A    between atoms: _43  and  _44
REMARK   23  A    between atoms: _47  and  _49
REMARK   24  A    between atoms: _49  and  _50
REMARK   25  A    between atoms: _49  and  _52
REMARK   26  A    between atoms: _52  and  _53
REMARK   27  A    between atoms: _56  and  _58
REMARK   28  A    between atoms: _58  and  _59
REMARK   29  A    between atoms: _58  and  _61
REMARK   30  A    between atoms: _61  and  _62
REMARK   31  A    between atoms: _65  and  _67
REMARK   32  A    between atoms: _67  and  _68
REMARK   33  A    between atoms: _70  and  _72
REMARK   34  A    between atoms: _72  and  _73
REMARK   35  A    between atoms: _72  and  _75
REMARK   36  A    between atoms: _75  and  _76
REMARK   37  A    between atoms: _79  and  _81
REMARK   38  A    between atoms: _81  and  _82
REMARK   39  A    between atoms: _85  and  _87
REMARK   40  A    between atoms: _87  and  _88
REMARK   41  A    between atoms: _87  and  _90
REMARK   42  A    between atoms: _90  and  _91
REMARK   43  A    between atoms: _94  and  _96
REMARK   44  A    between atoms: _96  and  _97
REMARK   45  A    between atoms: _96  and  _99
REMARK   46  A    between atoms: _102  and  _104
REMARK   47  A    between atoms: _104  and  _105
REMARK   48  A    between atoms: _104  and  _107
REMARK   49  A    between atoms: _107  and  _108
REMARK   50  A    between atoms: _108  and  _109
REMARK   51  A    between atoms: _114  and  _116
REMARK   52  A    between atoms: _116  and  _117
REMARK   53  A    between atoms: _116  and  _119
REMARK   54  A    between atoms: _119  and  _120
REMARK   55  A    between atoms: _125  and  _127
REMARK   56  A    between atoms: _127  and  _128
REMARK   57  A    between atoms: _127  and  _130
REMARK   58  A    between atoms: _130  and  _131
REMARK   59  A    between atoms: _134  and  _136
REMARK   60  A    between atoms: _136  and  _137
REMARK   61  A    between atoms: _136  and  _139
REMARK   62  A    between atoms: _142  and  _144
REMARK   63  A    between atoms: _144  and  _145
REMARK   64  A    between atoms: _144  and  _147
REMARK   65  A    between atoms: _147  and  _148
REMARK   66  A    between atoms: _151  and  _153
REMARK   67  A    between atoms: _153  and  _154
REMARK   68  A    between atoms: _153  and  _156
REMARK   69  A    between atoms: _156  and  _157
REMARK   70  A    between atoms: _157  and  _158
REMARK   71  A    between atoms: _160  and  _162
REMARK   72  A    between atoms: _162  and  _163
REMARK   73  A    between atoms: _166  and  _168
REMARK   74  A    between atoms: _168  and  _169
REMARK   75  A    between atoms: _168  and  _171
REMARK   76  A    between atoms: _171  and  _172
REMARK   77  A    between atoms: _176  and  ZN_323
REMARK   78  A    between atoms: _177  and  _179
REMARK   79  A    between atoms: _179  and  _180
REMARK   80  A    between atoms: _179  and  _182
REMARK   81  A    between atoms: _182  and  _183
REMARK   82  A    between atoms: _183  and  _184
REMARK   83  A    between atoms: _187  and  _189
REMARK   84  A    between atoms: _189  and  _190
REMARK   85  A    between atoms: _189  and  _192
REMARK   86  A    between atoms: _192  and  _193
REMARK   87  A    between atoms: _197  and  ZN_323
REMARK   88  A    between atoms: _198  and  _200
REMARK   89  A    between atoms: _200  and  _201
REMARK   90  A    between atoms: _200  and  _203
REMARK   91  A    between atoms: _203  and  _204
REMARK   92  A    between atoms: _208  and  ZN_323
REMARK   93  A    between atoms: _209  and  _211
REMARK   94  A    between atoms: _211  and  _212
REMARK   95  A    between atoms: _211  and  _214
REMARK   96  A    between atoms: _214  and  _215
REMARK   97  A    between atoms: _218  and  _220
REMARK   98  A    between atoms: _220  and  _221
REMARK   99  A    between atoms: _220  and  _223
REMARK  100  A    between atoms: _223  and  _224
REMARK  101  A    between atoms: _227  and  _229
REMARK  102  A    between atoms: _229  and  _230
REMARK  103  A    between atoms: _229  and  _232
REMARK  104  A    between atoms: _234  and  _236
REMARK  105  A    between atoms: _236  and  _237
REMARK  106  A    between atoms: _236  and  _239
REMARK  107  A    between atoms: _239  and  _240
REMARK  108  A    between atoms: _243  and  _245
REMARK  109  A    between atoms: _245  and  _246
REMARK  110  A    between atoms: _245  and  _248
REMARK  111  A    between atoms: _248  and  _249
REMARK  112  A    between atoms: _249  and  _250
REMARK  113  A    between atoms: _252  and  _254
REMARK  114  A    between atoms: _254  and  _255
REMARK  115  A    between atoms: _254  and  _257
REMARK  116  A    between atoms: _257  and  _258
REMARK  117  A    between atoms: _258  and  _259
REMARK  118  A    between atoms: _259  and  _260
REMARK  119  A    between atoms: _270  and  _271
REMARK  120  A    between atoms: _276  and  _278
REMARK  121  A    between atoms: _278  and  _279
REMARK  122  A    between atoms: _281  and  _283
REMARK  123  A    between atoms: _283  and  _284
REMARK  124  A    between atoms: _283  and  _286
REMARK  125  A    between atoms: _286  and  _287
REMARK  126  A    between atoms: _290  and  _292
REMARK  127  A    between atoms: _292  and  _293
REMARK  128  A    between atoms: _292  and  _295
REMARK  129  A    between atoms: _295  and  _296
REMARK  130  A    between atoms: _299  and  _301
REMARK  131  A    between atoms: _301  and  _302
REMARK  132  A    between atoms: _301  and  _304
REMARK  133  A    between atoms: _304  and  _305
REMARK  134  A    between atoms: _310  and  _311
REMARK  135  A    between atoms: _313  and  _315
REMARK  136  A    between atoms: _315  and  _316
REMARK  137  A    between atoms: _315  and  _318
REMARK  138  A    between atoms: _318  and  _319
REMARK  139  A    between atoms: _319  and  _320
REMARK                            x       y       z     vdW  Elec       q    Type
REMARK                         _______ _______ _______ _____ _____    ______ ____
ROOT
ATOM      1  O   HOH     1       1.092  20.489  49.473  0.00  0.00    +0.000 OA
ENDROOT
TORSDOF 0
REMARK  Name = ../refined-set-2016/1atl/1atl_pocket.pdb
REMARK  139 active torsions:
REMARK  status: ('A' for Active; 'I' for Inactive)
REMARK    1  A    between atoms: _1  and  _3
REMARK    2  A    between atoms: _3  and  _4
REMARK    3  A    between atoms: _3  and  _6
REMARK    4  A    between atoms: _6  and  _7
REMARK    5  A    between atoms: _9  and  _11
REMARK    6  A    between atoms: _11  and  _12
REMARK    7  A    between atoms: _11  and  _14
REMARK    8  A    between atoms: _14  and  _15
REMARK    9  A    between atoms: _18  and  _20
REMARK   10  A    between atoms: _20  and  _21
REMARK   11  A    between atoms: _20  and  _23
REMARK   12  A    between atoms: _23  and  _24
REMARK   13  A    between atoms: _27  and  _29
REMARK   14  A    between atoms: _29  and  _30
REMARK   15  A    between atoms: _29  and  _32
REMARK   16  A    between atoms: _32  and  _33
REMARK   17  A    between atoms: _33  and  _34
REMARK   18  A    between atoms: _37  and  _39
REMARK   19  A    between atoms: _39  and  _40
REMARK   20  A    between atoms: _39  and  _42
REMARK   21  A    between atoms: _42  and  _43
REMARK   22  A    between atoms: _43  and  _44
REMARK   23  A    between atoms: _47  and  _49
REMARK   24  A    between atoms: _49  and  _50
REMARK   25  A    between atoms: _49  and  _52
REMARK   26  A    between atoms: _52  and  _53
REMARK   27  A    between atoms: _56  and  _58
REMARK   28  A    between atoms: _58  and  _59
REMARK   29  A    between atoms: _58  and  _61
REMARK   30  A    between atoms: _61  and  _62
REMARK   31  A    between atoms: _65  and  _67
REMARK   32  A    between atoms: _67  and  _68
REMARK   33  A    between atoms: _70  and  _72
REMARK   34  A    between atoms: _72  and  _73
REMARK   35  A    between atoms: _72  and  _75
REMARK   36  A    between atoms: _75  and  _76
REMARK   37  A    between atoms: _79  and  _81
REMARK   38  A    between atoms: _81  and  _82
REMARK   39  A    between atoms: _85  and  _87
REMARK   40  A    between atoms: _87  and  _88
REMARK   41  A    between atoms: _87  and  _90
REMARK   42  A    between atoms: _90  and  _91
REMARK   43  A    between atoms: _94  and  _96
REMARK   44  A    between atoms: _96  and  _97
REMARK   45  A    between atoms: _96  and  _99
REMARK   46  A    between atoms: _102  and  _104
REMARK   47  A    between atoms: _104  and  _105
REMARK   48  A    between atoms: _104  and  _107
REMARK   49  A    between atoms: _107  and  _108
REMARK   50  A    between atoms: _108  and  _109
REMARK   51  A    between atoms: _114  and  _116
REMARK   52  A    between atoms: _116  and  _117
REMARK   53  A    between atoms: _116  and  _119
REMARK   54  A    between atoms: _119  and  _120
REMARK   55  A    between atoms: _125  and  _127
REMARK   56  A    between atoms: _127  and  _128
REMARK   57  A    between atoms: _127  and  _130
REMARK   58  A    between atoms: _130  and  _131
REMARK   59  A    between atoms: _134  and  _136
REMARK   60  A    between atoms: _136  and  _137
REMARK   61  A    between atoms: _136  and  _139
REMARK   62  A    between atoms: _142  and  _144
REMARK   63  A    between atoms: _144  and  _145
REMARK   64  A    between atoms: _144  and  _147
REMARK   65  A    between atoms: _147  and  _148
REMARK   66  A    between atoms: _151  and  _153
REMARK   67  A    between atoms: _153  and  _154
REMARK   68  A    between atoms: _153  and  _156
REMARK   69  A    between atoms: _156  and  _157
REMARK   70  A    between atoms: _157  and  _158
REMARK   71  A    between atoms: _160  and  _162
REMARK   72  A    between atoms: _162  and  _163
REMARK   73  A    between atoms: _166  and  _168
REMARK   74  A    between atoms: _168  and  _169
REMARK   75  A    between atoms: _168  and  _171
REMARK   76  A    between atoms: _171  and  _172
REMARK   77  A    between atoms: _176  and  ZN_323
REMARK   78  A    between atoms: _177  and  _179
REMARK   79  A    between atoms: _179  and  _180
REMARK   80  A    between atoms: _179  and  _182
REMARK   81  A    between atoms: _182  and  _183
REMARK   82  A    between atoms: _183  and  _184
REMARK   83  A    between atoms: _187  and  _189
REMARK   84  A    between atoms: _189  and  _190
REMARK   85  A    between atoms: _189  and  _192
REMARK   86  A    between atoms: _192  and  _193
REMARK   87  A    between atoms: _197  and  ZN_323
REMARK   88  A    between atoms: _198  and  _200
REMARK   89  A    between atoms: _200  and  _201
REMARK   90  A    between atoms: _200  and  _203
REMARK   91  A    between atoms: _203  and  _204
REMARK   92  A    between atoms: _208  and  ZN_323
REMARK   93  A    between atoms: _209  and  _211
REMARK   94  A    between atoms: _211  and  _212
REMARK   95  A    between atoms: _211  and  _214
REMARK   96  A    between atoms: _214  and  _215
REMARK   97  A    between atoms: _218  and  _220
REMARK   98  A    between atoms: _220  and  _221
REMARK   99  A    between atoms: _220  and  _223
REMARK  100  A    between atoms: _223  and  _224
REMARK  101  A    between atoms: _227  and  _229
REMARK  102  A    between atoms: _229  and  _230
REMARK  103  A    between atoms: _229  and  _232
REMARK  104  A    between atoms: _234  and  _236
REMARK  105  A    between atoms: _236  and  _237
REMARK  106  A    between atoms: _236  and  _239
REMARK  107  A    between atoms: _239  and  _240
REMARK  108  A    between atoms: _243  and  _245
REMARK  109  A    between atoms: _245  and  _246
REMARK  110  A    between atoms: _245  and  _248
REMARK  111  A    between atoms: _248  and  _249
REMARK  112  A    between atoms: _249  and  _250
REMARK  113  A    between atoms: _252  and  _254
REMARK  114  A    between atoms: _254  and  _255
REMARK  115  A    between atoms: _254  and  _257
REMARK  116  A    between atoms: _257  and  _258
REMARK  117  A    between atoms: _258  and  _259
REMARK  118  A    between atoms: _259  and  _260
REMARK  119  A    between atoms: _270  and  _271
REMARK  120  A    between atoms: _276  and  _278
REMARK  121  A    between atoms: _278  and  _279
REMARK  122  A    between atoms: _281  and  _283
REMARK  123  A    between atoms: _283  and  _284
REMARK  124  A    between atoms: _283  and  _286
REMARK  125  A    between atoms: _286  and  _287
REMARK  126  A    between atoms: _290  and  _292
REMARK  127  A    between atoms: _292  and  _293
REMARK  128  A    between atoms: _292  and  _295
REMARK  129  A    between atoms: _295  and  _296
REMARK  130  A    between atoms: _299  and  _301
REMARK  131  A    between atoms: _301  and  _302
REMARK  132  A    between atoms: _301  and  _304
REMARK  133  A    between atoms: _304  and  _305
REMARK  134  A    between atoms: _310  and  _311
REMARK  135  A    between atoms: _313  and  _315
REMARK  136  A    between atoms: _315  and  _316
REMARK  137  A    between atoms: _315  and  _318
REMARK  138  A    between atoms: _318  and  _319
REMARK  139  A    between atoms: _319  and  _320
REMARK                            x       y       z     vdW  Elec       q    Type
REMARK                         _______ _______ _______ _____ _____    ______ ____
ROOT
ATOM      1  O   HOH     1     -10.681  20.857  43.617  0.00  0.00    +0.000 OA
ENDROOT
TORSDOF 0
REMARK  Name = ../refined-set-2016/1atl/1atl_pocket.pdb
REMARK  139 active torsions:
REMARK  status: ('A' for Active; 'I' for Inactive)
REMARK    1  A    between atoms: _1  and  _3
REMARK    2  A    between atoms: _3  and  _4
REMARK    3  A    between atoms: _3  and  _6
REMARK    4  A    between atoms: _6  and  _7
REMARK    5  A    between atoms: _9  and  _11
REMARK    6  A    between atoms: _11  and  _12
REMARK    7  A    between atoms: _11  and  _14
REMARK    8  A    between atoms: _14  and  _15
REMARK    9  A    between atoms: _18  and  _20
REMARK   10  A    between atoms: _20  and  _21
REMARK   11  A    between atoms: _20  and  _23
REMARK   12  A    between atoms: _23  and  _24
REMARK   13  A    between atoms: _27  and  _29
REMARK   14  A    between atoms: _29  and  _30
REMARK   15  A    between atoms: _29  and  _32
REMARK   16  A    between atoms: _32  and  _33
REMARK   17  A    between atoms: _33  and  _34
REMARK   18  A    between atoms: _37  and  _39
REMARK   19  A    between atoms: _39  and  _40
REMARK   20  A    between atoms: _39  and  _42
REMARK   21  A    between atoms: _42  and  _43
REMARK   22  A    between atoms: _43  and  _44
REMARK   23  A    between atoms: _47  and  _49
REMARK   24  A    between atoms: _49  and  _50
REMARK   25  A    between atoms: _49  and  _52
REMARK   26  A    between atoms: _52  and  _53
REMARK   27  A    between atoms: _56  and  _58
REMARK   28  A    between atoms: _58  and  _59
REMARK   29  A    between atoms: _58  and  _61
REMARK   30  A    between atoms: _61  and  _62
REMARK   31  A    between atoms: _65  and  _67
REMARK   32  A    between atoms: _67  and  _68
REMARK   33  A    between atoms: _70  and  _72
REMARK   34  A    between atoms: _72  and  _73
REMARK   35  A    between atoms: _72  and  _75
REMARK   36  A    between atoms: _75  and  _76
REMARK   37  A    between atoms: _79  and  _81
REMARK   38  A    between atoms: _81  and  _82
REMARK   39  A    between atoms: _85  and  _87
REMARK   40  A    between atoms: _87  and  _88
REMARK   41  A    between atoms: _87  and  _90
REMARK   42  A    between atoms: _90  and  _91
REMARK   43  A    between atoms: _94  and  _96
REMARK   44  A    between atoms: _96  and  _97
REMARK   45  A    between atoms: _96  and  _99
REMARK   46  A    between atoms: _102  and  _104
REMARK   47  A    between atoms: _104  and  _105
REMARK   48  A    between atoms: _104  and  _107
REMARK   49  A    between atoms: _107  and  _108
REMARK   50  A    between atoms: _108  and  _109
REMARK   51  A    between atoms: _114  and  _116
REMARK   52  A    between atoms: _116  and  _117
REMARK   53  A    between atoms: _116  and  _119
REMARK   54  A    between atoms: _119  and  _120
REMARK   55  A    between atoms: _125  and  _127
REMARK   56  A    between atoms: _127  and  _128
REMARK   57  A    between atoms: _127  and  _130
REMARK   58  A    between atoms: _130  and  _131
REMARK   59  A    between atoms: _134  and  _136
REMARK   60  A    between atoms: _136  and  _137
REMARK   61  A    between atoms: _136  and  _139
REMARK   62  A    between atoms: _142  and  _144
REMARK   63  A    between atoms: _144  and  _145
REMARK   64  A    between atoms: _144  and  _147
REMARK   65  A    between atoms: _147  and  _148
REMARK   66  A    between atoms: _151  and  _153
REMARK   67  A    between atoms: _153  and  _154
REMARK   68  A    between atoms: _153  and  _156
REMARK   69  A    between atoms: _156  and  _157
REMARK   70  A    between atoms: _157  and  _158
REMARK   71  A    between atoms: _160  and  _162
REMARK   72  A    between atoms: _162  and  _163
REMARK   73  A    between atoms: _166  and  _168
REMARK   74  A    between atoms: _168  and  _169
REMARK   75  A    between atoms: _168  and  _171
REMARK   76  A    between atoms: _171  and  _172
REMARK   77  A    between atoms: _176  and  ZN_323
REMARK   78  A    between atoms: _177  and  _179
REMARK   79  A    between atoms: _179  and  _180
REMARK   80  A    between atoms: _179  and  _182
REMARK   81  A    between atoms: _182  and  _183
REMARK   82  A    between atoms: _183  and  _184
REMARK   83  A    between atoms: _187  and  _189
REMARK   84  A    between atoms: _189  and  _190
REMARK   85  A    between atoms: _189  and  _192
REMARK   86  A    between atoms: _192  and  _193
REMARK   87  A    between atoms: _197  and  ZN_323
REMARK   88  A    between atoms: _198  and  _200
REMARK   89  A    between atoms: _200  and  _201
REMARK   90  A    between atoms: _200  and  _203
REMARK   91  A    between atoms: _203  and  _204
REMARK   92  A    between atoms: _208  and  ZN_323
REMARK   93  A    between atoms: _209  and  _211
REMARK   94  A    between atoms: _211  and  _212
REMARK   95  A    between atoms: _211  and  _214
REMARK   96  A    between atoms: _214  and  _215
REMARK   97  A    between atoms: _218  and  _220
REMARK   98  A    between atoms: _220  and  _221
REMARK   99  A    between atoms: _220  and  _223
REMARK  100  A    between atoms: _223  and  _224
REMARK  101  A    between atoms: _227  and  _229
REMARK  102  A    between atoms: _229  and  _230
REMARK  103  A    between atoms: _229  and  _232
REMARK  104  A    between atoms: _234  and  _236
REMARK  105  A    between atoms: _236  and  _237
REMARK  106  A    between atoms: _236  and  _239
REMARK  107  A    between atoms: _239  and  _240
REMARK  108  A    between atoms: _243  and  _245
REMARK  109  A    between atoms: _245  and  _246
REMARK  110  A    between atoms: _245  and  _248
REMARK  111  A    between atoms: _248  and  _249
REMARK  112  A    between atoms: _249  and  _250
REMARK  113  A    between atoms: _252  and  _254
REMARK  114  A    between atoms: _254  and  _255
REMARK  115  A    between atoms: _254  and  _257
REMARK  116  A    between atoms: _257  and  _258
REMARK  117  A    between atoms: _258  and  _259
REMARK  118  A    between atoms: _259  and  _260
REMARK  119  A    between atoms: _270  and  _271
REMARK  120  A    between atoms: _276  and  _278
REMARK  121  A    between atoms: _278  and  _279
REMARK  122  A    between atoms: _281  and  _283
REMARK  123  A    between atoms: _283  and  _284
REMARK  124  A    between atoms: _283  and  _286
REMARK  125  A    between atoms: _286  and  _287
REMARK  126  A    between atoms: _290  and  _292
REMARK  127  A    between atoms: _292  and  _293
REMARK  128  A    between atoms: _292  and  _295
REMARK  129  A    between atoms: _295  and  _296
REMARK  130  A    between atoms: _299  and  _301
REMARK  131  A    between atoms: _301  and  _302
REMARK  132  A    between atoms: _301  and  _304
REMARK  133  A    between atoms: _304  and  _305
REMARK  134  A    between atoms: _310  and  _311
REMARK  135  A    between atoms: _313  and  _315
REMARK  136  A    between atoms: _315  and  _316
REMARK  137  A    between atoms: _315  and  _318
REMARK  138  A    between atoms: _318  and  _319
REMARK  139  A    between atoms: _319  and  _320
REMARK                            x       y       z     vdW  Elec       q    Type
REMARK                         _______ _______ _______ _____ _____    ______ ____
ROOT
ATOM      1  O   HOH     1      -7.055  26.293  48.258  0.00  0.00    +0.000 OA
ENDROOT
TORSDOF 0
REMARK  Name = ../refined-set-2016/1atl/1atl_pocket.pdb
REMARK  139 active torsions:
REMARK  status: ('A' for Active; 'I' for Inactive)
REMARK    1  A    between atoms: _1  and  _3
REMARK    2  A    between atoms: _3  and  _4
REMARK    3  A    between atoms: _3  and  _6
REMARK    4  A    between atoms: _6  and  _7
REMARK    5  A    between atoms: _9  and  _11
REMARK    6  A    between atoms: _11  and  _12
REMARK    7  A    between atoms: _11  and  _14
REMARK    8  A    between atoms: _14  and  _15
REMARK    9  A    between atoms: _18  and  _20
REMARK   10  A    between atoms: _20  and  _21
REMARK   11  A    between atoms: _20  and  _23
REMARK   12  A    between atoms: _23  and  _24
REMARK   13  A    between atoms: _27  and  _29
REMARK   14  A    between atoms: _29  and  _30
REMARK   15  A    between atoms: _29  and  _32
REMARK   16  A    between atoms: _32  and  _33
REMARK   17  A    between atoms: _33  and  _34
REMARK   18  A    between atoms: _37  and  _39
REMARK   19  A    between atoms: _39  and  _40
REMARK   20  A    between atoms: _39  and  _42
REMARK   21  A    between atoms: _42  and  _43
REMARK   22  A    between atoms: _43  and  _44
REMARK   23  A    between atoms: _47  and  _49
REMARK   24  A    between atoms: _49  and  _50
REMARK   25  A    between atoms: _49  and  _52
REMARK   26  A    between atoms: _52  and  _53
REMARK   27  A    between atoms: _56  and  _58
REMARK   28  A    between atoms: _58  and  _59
REMARK   29  A    between atoms: _58  and  _61
REMARK   30  A    between atoms: _61  and  _62
REMARK   31  A    between atoms: _65  and  _67
REMARK   32  A    between atoms: _67  and  _68
REMARK   33  A    between atoms: _70  and  _72
REMARK   34  A    between atoms: _72  and  _73
REMARK   35  A    between atoms: _72  and  _75
REMARK   36  A    between atoms: _75  and  _76
REMARK   37  A    between atoms: _79  and  _81
REMARK   38  A    between atoms: _81  and  _82
REMARK   39  A    between atoms: _85  and  _87
REMARK   40  A    between atoms: _87  and  _88
REMARK   41  A    between atoms: _87  and  _90
REMARK   42  A    between atoms: _90  and  _91
REMARK   43  A    between atoms: _94  and  _96
REMARK   44  A    between atoms: _96  and  _97
REMARK   45  A    between atoms: _96  and  _99
REMARK   46  A    between atoms: _102  and  _104
REMARK   47  A    between atoms: _104  and  _105
REMARK   48  A    between atoms: _104  and  _107
REMARK   49  A    between atoms: _107  and  _108
REMARK   50  A    between atoms: _108  and  _109
REMARK   51  A    between atoms: _114  and  _116
REMARK   52  A    between atoms: _116  and  _117
REMARK   53  A    between atoms: _116  and  _119
REMARK   54  A    between atoms: _119  and  _120
REMARK   55  A    between atoms: _125  and  _127
REMARK   56  A    between atoms: _127  and  _128
REMARK   57  A    between atoms: _127  and  _130
REMARK   58  A    between atoms: _130  and  _131
REMARK   59  A    between atoms: _134  and  _136
REMARK   60  A    between atoms: _136  and  _137
REMARK   61  A    between atoms: _136  and  _139
REMARK   62  A    between atoms: _142  and  _144
REMARK   63  A    between atoms: _144  and  _145
REMARK   64  A    between atoms: _144  and  _147
REMARK   65  A    between atoms: _147  and  _148
REMARK   66  A    between atoms: _151  and  _153
REMARK   67  A    between atoms: _153  and  _154
REMARK   68  A    between atoms: _153  and  _156
REMARK   69  A    between atoms: _156  and  _157
REMARK   70  A    between atoms: _157  and  _158
REMARK   71  A    between atoms: _160  and  _162
REMARK   72  A    between atoms: _162  and  _163
REMARK   73  A    between atoms: _166  and  _168
REMARK   74  A    between atoms: _168  and  _169
REMARK   75  A    between atoms: _168  and  _171
REMARK   76  A    between atoms: _171  and  _172
REMARK   77  A    between atoms: _176  and  ZN_323
REMARK   78  A    between atoms: _177  and  _179
REMARK   79  A    between atoms: _179  and  _180
REMARK   80  A    between atoms: _179  and  _182
REMARK   81  A    between atoms: _182  and  _183
REMARK   82  A    between atoms: _183  and  _184
REMARK   83  A    between atoms: _187  and  _189
REMARK   84  A    between atoms: _189  and  _190
REMARK   85  A    between atoms: _189  and  _192
REMARK   86  A    between atoms: _192  and  _193
REMARK   87  A    between atoms: _197  and  ZN_323
REMARK   88  A    between atoms: _198  and  _200
REMARK   89  A    between atoms: _200  and  _201
REMARK   90  A    between atoms: _200  and  _203
REMARK   91  A    between atoms: _203  and  _204
REMARK   92  A    between atoms: _208  and  ZN_323
REMARK   93  A    between atoms: _209  and  _211
REMARK   94  A    between atoms: _211  and  _212
REMARK   95  A    between atoms: _211  and  _214
REMARK   96  A    between atoms: _214  and  _215
REMARK   97  A    between atoms: _218  and  _220
REMARK   98  A    between atoms: _220  and  _221
REMARK   99  A    between atoms: _220  and  _223
REMARK  100  A    between atoms: _223  and  _224
REMARK  101  A    between atoms: _227  and  _229
REMARK  102  A    between atoms: _229  and  _230
REMARK  103  A    between atoms: _229  and  _232
REMARK  104  A    between atoms: _234  and  _236
REMARK  105  A    between atoms: _236  and  _237
REMARK  106  A    between atoms: _236  and  _239
REMARK  107  A    between atoms: _239  and  _240
REMARK  108  A    between atoms: _243  and  _245
REMARK  109  A    between atoms: _245  and  _246
REMARK  110  A    between atoms: _245  and  _248
REMARK  111  A    between atoms: _248  and  _249
REMARK  112  A    between atoms: _249  and  _250
REMARK  113  A    between atoms: _252  and  _254
REMARK  114  A    between atoms: _254  and  _255
REMARK  115  A    between atoms: _254  and  _257
REMARK  116  A    between atoms: _257  and  _258
REMARK  117  A    between atoms: _258  and  _259
REMARK  118  A    between atoms: _259  and  _260
REMARK  119  A    between atoms: _270  and  _271
REMARK  120  A    between atoms: _276  and  _278
REMARK  121  A    between atoms: _278  and  _279
REMARK  122  A    between atoms: _281  and  _283
REMARK  123  A    between atoms: _283  and  _284
REMARK  124  A    between atoms: _283  and  _286
REMARK  125  A    between atoms: _286  and  _287
REMARK  126  A    between atoms: _290  and  _292
REMARK  127  A    between atoms: _292  and  _293
REMARK  128  A    between atoms: _292  and  _295
REMARK  129  A    between atoms: _295  and  _296
REMARK  130  A    between atoms: _299  and  _301
REMARK  131  A    between atoms: _301  and  _302
REMARK  132  A    between atoms: _301  and  _304
REMARK  133  A    between atoms: _304  and  _305
REMARK  134  A    between atoms: _310  and  _311
REMARK  135  A    between atoms: _313  and  _315
REMARK  136  A    between atoms: _315  and  _316
REMARK  137  A    between atoms: _315  and  _318
REMARK  138  A    between atoms: _318  and  _319
REMARK  139  A    between atoms: _319  and  _320
REMARK                            x       y       z     vdW  Elec       q    Type
REMARK                         _______ _______ _______ _____ _____    ______ ____
ROOT
ATOM      1  O   HOH     1     -11.423  29.234  44.794  0.00  0.00    +0.000 OA
ENDROOT
TORSDOF 0
REMARK  Name = ../refined-set-2016/1atl/1atl_pocket.pdb
REMARK  139 active torsions:
REMARK  status: ('A' for Active; 'I' for Inactive)
REMARK    1  A    between atoms: _1  and  _3
REMARK    2  A    between atoms: _3  and  _4
REMARK    3  A    between atoms: _3  and  _6
REMARK    4  A    between atoms: _6  and  _7
REMARK    5  A    between atoms: _9  and  _11
REMARK    6  A    between atoms: _11  and  _12
REMARK    7  A    between atoms: _11  and  _14
REMARK    8  A    between atoms: _14  and  _15
REMARK    9  A    between atoms: _18  and  _20
REMARK   10  A    between atoms: _20  and  _21
REMARK   11  A    between atoms: _20  and  _23
REMARK   12  A    between atoms: _23  and  _24
REMARK   13  A    between atoms: _27  and  _29
REMARK   14  A    between atoms: _29  and  _30
REMARK   15  A    between atoms: _29  and  _32
REMARK   16  A    between atoms: _32  and  _33
REMARK   17  A    between atoms: _33  and  _34
REMARK   18  A    between atoms: _37  and  _39
REMARK   19  A    between atoms: _39  and  _40
REMARK   20  A    between atoms: _39  and  _42
REMARK   21  A    between atoms: _42  and  _43
REMARK   22  A    between atoms: _43  and  _44
REMARK   23  A    between atoms: _47  and  _49
REMARK   24  A    between atoms: _49  and  _50
REMARK   25  A    between atoms: _49  and  _52
REMARK   26  A    between atoms: _52  and  _53
REMARK   27  A    between atoms: _56  and  _58
REMARK   28  A    between atoms: _58  and  _59
REMARK   29  A    between atoms: _58  and  _61
REMARK   30  A    between atoms: _61  and  _62
REMARK   31  A    between atoms: _65  and  _67
REMARK   32  A    between atoms: _67  and  _68
REMARK   33  A    between atoms: _70  and  _72
REMARK   34  A    between atoms: _72  and  _73
REMARK   35  A    between atoms: _72  and  _75
REMARK   36  A    between atoms: _75  and  _76
REMARK   37  A    between atoms: _79  and  _81
REMARK   38  A    between atoms: _81  and  _82
REMARK   39  A    between atoms: _85  and  _87
REMARK   40  A    between atoms: _87  and  _88
REMARK   41  A    between atoms: _87  and  _90
REMARK   42  A    between atoms: _90  and  _91
REMARK   43  A    between atoms: _94  and  _96
REMARK   44  A    between atoms: _96  and  _97
REMARK   45  A    between atoms: _96  and  _99
REMARK   46  A    between atoms: _102  and  _104
REMARK   47  A    between atoms: _104  and  _105
REMARK   48  A    between atoms: _104  and  _107
REMARK   49  A    between atoms: _107  and  _108
REMARK   50  A    between atoms: _108  and  _109
REMARK   51  A    between atoms: _114  and  _116
REMARK   52  A    between atoms: _116  and  _117
REMARK   53  A    between atoms: _116  and  _119
REMARK   54  A    between atoms: _119  and  _120
REMARK   55  A    between atoms: _125  and  _127
REMARK   56  A    between atoms: _127  and  _128
REMARK   57  A    between atoms: _127  and  _130
REMARK   58  A    between atoms: _130  and  _131
REMARK   59  A    between atoms: _134  and  _136
REMARK   60  A    between atoms: _136  and  _137
REMARK   61  A    between atoms: _136  and  _139
REMARK   62  A    between atoms: _142  and  _144
REMARK   63  A    between atoms: _144  and  _145
REMARK   64  A    between atoms: _144  and  _147
REMARK   65  A    between atoms: _147  and  _148
REMARK   66  A    between atoms: _151  and  _153
REMARK   67  A    between atoms: _153  and  _154
REMARK   68  A    between atoms: _153  and  _156
REMARK   69  A    between atoms: _156  and  _157
REMARK   70  A    between atoms: _157  and  _158
REMARK   71  A    between atoms: _160  and  _162
REMARK   72  A    between atoms: _162  and  _163
REMARK   73  A    between atoms: _166  and  _168
REMARK   74  A    between atoms: _168  and  _169
REMARK   75  A    between atoms: _168  and  _171
REMARK   76  A    between atoms: _171  and  _172
REMARK   77  A    between atoms: _176  and  ZN_323
REMARK   78  A    between atoms: _177  and  _179
REMARK   79  A    between atoms: _179  and  _180
REMARK   80  A    between atoms: _179  and  _182
REMARK   81  A    between atoms: _182  and  _183
REMARK   82  A    between atoms: _183  and  _184
REMARK   83  A    between atoms: _187  and  _189
REMARK   84  A    between atoms: _189  and  _190
REMARK   85  A    between atoms: _189  and  _192
REMARK   86  A    between atoms: _192  and  _193
REMARK   87  A    between atoms: _197  and  ZN_323
REMARK   88  A    between atoms: _198  and  _200
REMARK   89  A    between atoms: _200  and  _201
REMARK   90  A    between atoms: _200  and  _203
REMARK   91  A    between atoms: _203  and  _204
REMARK   92  A    between atoms: _208  and  ZN_323
REMARK   93  A    between atoms: _209  and  _211
REMARK   94  A    between atoms: _211  and  _212
REMARK   95  A    between atoms: _211  and  _214
REMARK   96  A    between atoms: _214  and  _215
REMARK   97  A    between atoms: _218  and  _220
REMARK   98  A    between atoms: _220  and  _221
REMARK   99  A    between atoms: _220  and  _223
REMARK  100  A    between atoms: _223  and  _224
REMARK  101  A    between atoms: _227  and  _229
REMARK  102  A    between atoms: _229  and  _230
REMARK  103  A    between atoms: _229  and  _232
REMARK  104  A    between atoms: _234  and  _236
REMARK  105  A    between atoms: _236  and  _237
REMARK  106  A    between atoms: _236  and  _239
REMARK  107  A    between atoms: _239  and  _240
REMARK  108  A    between atoms: _243  and  _245
REMARK  109  A    between atoms: _245  and  _246
REMARK  110  A    between atoms: _245  and  _248
REMARK  111  A    between atoms: _248  and  _249
REMARK  112  A    between atoms: _249  and  _250
REMARK  113  A    between atoms: _252  and  _254
REMARK  114  A    between atoms: _254  and  _255
REMARK  115  A    between atoms: _254  and  _257
REMARK  116  A    between atoms: _257  and  _258
REMARK  117  A    between atoms: _258  and  _259
REMARK  118  A    between atoms: _259  and  _260
REMARK  119  A    between atoms: _270  and  _271
REMARK  120  A    between atoms: _276  and  _278
REMARK  121  A    between atoms: _278  and  _279
REMARK  122  A    between atoms: _281  and  _283
REMARK  123  A    between atoms: _283  and  _284
REMARK  124  A    between atoms: _283  and  _286
REMARK  125  A    between atoms: _286  and  _287
REMARK  126  A    between atoms: _290  and  _292
REMARK  127  A    between atoms: _292  and  _293
REMARK  128  A    between atoms: _292  and  _295
REMARK  129  A    between atoms: _295  and  _296
REMARK  130  A    between atoms: _299  and  _301
REMARK  131  A    between atoms: _301  and  _302
REMARK  132  A    between atoms: _301  and  _304
REMARK  133  A    between atoms: _304  and  _305
REMARK  134  A    between atoms: _310  and  _311
REMARK  135  A    between atoms: _313  and  _315
REMARK  136  A    between atoms: _315  and  _316
REMARK  137  A    between atoms: _315  and  _318
REMARK  138  A    between atoms: _318  and  _319
REMARK  139  A    between atoms: _319  and  _320
REMARK                            x       y       z     vdW  Elec       q    Type
REMARK                         _______ _______ _______ _____ _____    ______ ____
ROOT
ATOM      1  O   HOH     1     -10.621  25.566  45.080  0.00  0.00    +0.000 OA
ENDROOT
TORSDOF 0
REMARK  Name = ../refined-set-2016/1atl/1atl_pocket.pdb
REMARK  139 active torsions:
REMARK  status: ('A' for Active; 'I' for Inactive)
REMARK    1  A    between atoms: _1  and  _3
REMARK    2  A    between atoms: _3  and  _4
REMARK    3  A    between atoms: _3  and  _6
REMARK    4  A    between atoms: _6  and  _7
REMARK    5  A    between atoms: _9  and  _11
REMARK    6  A    between atoms: _11  and  _12
REMARK    7  A    between atoms: _11  and  _14
REMARK    8  A    between atoms: _14  and  _15
REMARK    9  A    between atoms: _18  and  _20
REMARK   10  A    between atoms: _20  and  _21
REMARK   11  A    between atoms: _20  and  _23
REMARK   12  A    between atoms: _23  and  _24
REMARK   13  A    between atoms: _27  and  _29
REMARK   14  A    between atoms: _29  and  _30
REMARK   15  A    between atoms: _29  and  _32
REMARK   16  A    between atoms: _32  and  _33
REMARK   17  A    between atoms: _33  and  _34
REMARK   18  A    between atoms: _37  and  _39
REMARK   19  A    between atoms: _39  and  _40
REMARK   20  A    between atoms: _39  and  _42
REMARK   21  A    between atoms: _42  and  _43
REMARK   22  A    between atoms: _43  and  _44
REMARK   23  A    between atoms: _47  and  _49
REMARK   24  A    between atoms: _49  and  _50
REMARK   25  A    between atoms: _49  and  _52
REMARK   26  A    between atoms: _52  and  _53
REMARK   27  A    between atoms: _56  and  _58
REMARK   28  A    between atoms: _58  and  _59
REMARK   29  A    between atoms: _58  and  _61
REMARK   30  A    between atoms: _61  and  _62
REMARK   31  A    between atoms: _65  and  _67
REMARK   32  A    between atoms: _67  and  _68
REMARK   33  A    between atoms: _70  and  _72
REMARK   34  A    between atoms: _72  and  _73
REMARK   35  A    between atoms: _72  and  _75
REMARK   36  A    between atoms: _75  and  _76
REMARK   37  A    between atoms: _79  and  _81
REMARK   38  A    between atoms: _81  and  _82
REMARK   39  A    between atoms: _85  and  _87
REMARK   40  A    between atoms: _87  and  _88
REMARK   41  A    between atoms: _87  and  _90
REMARK   42  A    between atoms: _90  and  _91
REMARK   43  A    between atoms: _94  and  _96
REMARK   44  A    between atoms: _96  and  _97
REMARK   45  A    between atoms: _96  and  _99
REMARK   46  A    between atoms: _102  and  _104
REMARK   47  A    between atoms: _104  and  _105
REMARK   48  A    between atoms: _104  and  _107
REMARK   49  A    between atoms: _107  and  _108
REMARK   50  A    between atoms: _108  and  _109
REMARK   51  A    between atoms: _114  and  _116
REMARK   52  A    between atoms: _116  and  _117
REMARK   53  A    between atoms: _116  and  _119
REMARK   54  A    between atoms: _119  and  _120
REMARK   55  A    between atoms: _125  and  _127
REMARK   56  A    between atoms: _127  and  _128
REMARK   57  A    between atoms: _127  and  _130
REMARK   58  A    between atoms: _130  and  _131
REMARK   59  A    between atoms: _134  and  _136
REMARK   60  A    between atoms: _136  and  _137
REMARK   61  A    between atoms: _136  and  _139
REMARK   62  A    between atoms: _142  and  _144
REMARK   63  A    between atoms: _144  and  _145
REMARK   64  A    between atoms: _144  and  _147
REMARK   65  A    between atoms: _147  and  _148
REMARK   66  A    between atoms: _151  and  _153
REMARK   67  A    between atoms: _153  and  _154
REMARK   68  A    between atoms: _153  and  _156
REMARK   69  A    between atoms: _156  and  _157
REMARK   70  A    between atoms: _157  and  _158
REMARK   71  A    between atoms: _160  and  _162
REMARK   72  A    between atoms: _162  and  _163
REMARK   73  A    between atoms: _166  and  _168
REMARK   74  A    between atoms: _168  and  _169
REMARK   75  A    between atoms: _168  and  _171
REMARK   76  A    between atoms: _171  and  _172
REMARK   77  A    between atoms: _176  and  ZN_323
REMARK   78  A    between atoms: _177  and  _179
REMARK   79  A    between atoms: _179  and  _180
REMARK   80  A    between atoms: _179  and  _182
REMARK   81  A    between atoms: _182  and  _183
REMARK   82  A    between atoms: _183  and  _184
REMARK   83  A    between atoms: _187  and  _189
REMARK   84  A    between atoms: _189  and  _190
REMARK   85  A    between atoms: _189  and  _192
REMARK   86  A    between atoms: _192  and  _193
REMARK   87  A    between atoms: _197  and  ZN_323
REMARK   88  A    between atoms: _198  and  _200
REMARK   89  A    between atoms: _200  and  _201
REMARK   90  A    between atoms: _200  and  _203
REMARK   91  A    between atoms: _203  and  _204
REMARK   92  A    between atoms: _208  and  ZN_323
REMARK   93  A    between atoms: _209  and  _211
REMARK   94  A    between atoms: _211  and  _212
REMARK   95  A    between atoms: _211  and  _214
REMARK   96  A    between atoms: _214  and  _215
REMARK   97  A    between atoms: _218  and  _220
REMARK   98  A    between atoms: _220  and  _221
REMARK   99  A    between atoms: _220  and  _223
REMARK  100  A    between atoms: _223  and  _224
REMARK  101  A    between atoms: _227  and  _229
REMARK  102  A    between atoms: _229  and  _230
REMARK  103  A    between atoms: _229  and  _232
REMARK  104  A    between atoms: _234  and  _236
REMARK  105  A    between atoms: _236  and  _237
REMARK  106  A    between atoms: _236  and  _239
REMARK  107  A    between atoms: _239  and  _240
REMARK  108  A    between atoms: _243  and  _245
REMARK  109  A    between atoms: _245  and  _246
REMARK  110  A    between atoms: _245  and  _248
REMARK  111  A    between atoms: _248  and  _249
REMARK  112  A    between atoms: _249  and  _250
REMARK  113  A    between atoms: _252  and  _254
REMARK  114  A    between atoms: _254  and  _255
REMARK  115  A    between atoms: _254  and  _257
REMARK  116  A    between atoms: _257  and  _258
REMARK  117  A    between atoms: _258  and  _259
REMARK  118  A    between atoms: _259  and  _260
REMARK  119  A    between atoms: _270  and  _271
REMARK  120  A    between atoms: _276  and  _278
REMARK  121  A    between atoms: _278  and  _279
REMARK  122  A    between atoms: _281  and  _283
REMARK  123  A    between atoms: _283  and  _284
REMARK  124  A    between atoms: _283  and  _286
REMARK  125  A    between atoms: _286  and  _287
REMARK  126  A    between atoms: _290  and  _292
REMARK  127  A    between atoms: _292  and  _293
REMARK  128  A    between atoms: _292  and  _295
REMARK  129  A    between atoms: _295  and  _296
REMARK  130  A    between atoms: _299  and  _301
REMARK  131  A    between atoms: _301  and  _302
REMARK  132  A    between atoms: _301  and  _304
REMARK  133  A    between atoms: _304  and  _305
REMARK  134  A    between atoms: _310  and  _311
REMARK  135  A    between atoms: _313  and  _315
REMARK  136  A    between atoms: _315  and  _316
REMARK  137  A    between atoms: _315  and  _318
REMARK  138  A    between atoms: _318  and  _319
REMARK  139  A    between atoms: _319  and  _320
REMARK                            x       y       z     vdW  Elec       q    Type
REMARK                         _______ _______ _______ _____ _____    ______ ____
ROOT
ATOM      1  O   HOH     1     -10.615  30.440  48.231  0.00  0.00    +0.000 OA
ENDROOT
TORSDOF 0
