REMARK  Name = ../refined-set-2016/1xh4/1xh4_pocket.pdb
REMARK  269 active torsions:
REMARK  status: ('A' for Active; 'I' for Inactive)
REMARK    1  A    between atoms: _1  and  _3
REMARK    2  A    between atoms: _3  and  _4
REMARK    3  A    between atoms: _3  and  _6
REMARK    4  A    between atoms: _6  and  _7
REMARK    5  A    between atoms: _10  and  _12
REMARK    6  A    between atoms: _12  and  _13
REMARK    7  A    between atoms: _12  and  _15
REMARK    8  A    between atoms: _15  and  _16
REMARK    9  A    between atoms: _19  and  _21
REMARK   10  A    between atoms: _21  and  _22
REMARK   11  A    between atoms: _24  and  _26
REMARK   12  A    between atoms: _26  and  _27
REMARK   13  A    between atoms: _26  and  _29
REMARK   14  A    between atoms: _29  and  _30
REMARK   15  A    between atoms: _33  and  _35
REMARK   16  A    between atoms: _35  and  _36
REMARK   17  A    between atoms: _38  and  _40
REMARK   18  A    between atoms: _40  and  _41
REMARK   19  A    between atoms: _40  and  _43
REMARK   20  A    between atoms: _43  and  _44
REMARK   21  A    between atoms: _46  and  _48
REMARK   22  A    between atoms: _48  and  _49
REMARK   23  A    between atoms: _48  and  _51
REMARK   24  A    between atoms: _51  and  _52
REMARK   25  A    between atoms: _58  and  _60
REMARK   26  A    between atoms: _60  and  _61
REMARK   27  A    between atoms: _63  and  _65
REMARK   28  A    between atoms: _65  and  _66
REMARK   29  A    between atoms: _65  and  _68
REMARK   30  A    between atoms: _68  and  _69
REMARK   31  A    between atoms: _69  and  _70
REMARK   32  A    between atoms: _70  and  _71
REMARK   33  A    between atoms: _80  and  _82
REMARK   34  A    between atoms: _82  and  _83
REMARK   35  A    between atoms: _82  and  _85
REMARK   36  A    between atoms: _88  and  _90
REMARK   37  A    between atoms: _90  and  _91
REMARK   38  A    between atoms: _90  and  _93
REMARK   39  A    between atoms: _93  and  _94
REMARK   40  A    between atoms: _94  and  _95
REMARK   41  A    between atoms: _97  and  _99
REMARK   42  A    between atoms: _99  and  _100
REMARK   43  A    between atoms: _99  and  _102
REMARK   44  A    between atoms: _102  and  _103
REMARK   45  A    between atoms: _106  and  _108
REMARK   46  A    between atoms: _108  and  _109
REMARK   47  A    between atoms: _108  and  _111
REMARK   48  A    between atoms: _111  and  _112
REMARK   49  A    between atoms: _117  and  _118
REMARK   50  A    between atoms: _120  and  _122
REMARK   51  A    between atoms: _122  and  _123
REMARK   52  A    between atoms: _126  and  _128
REMARK   53  A    between atoms: _128  and  _129
REMARK   54  A    between atoms: _128  and  _131
REMARK   55  A    between atoms: _131  and  _132
REMARK   56  A    between atoms: _132  and  _133
REMARK   57  A    between atoms: _135  and  _137
REMARK   58  A    between atoms: _137  and  _138
REMARK   59  A    between atoms: _137  and  _140
REMARK   60  A    between atoms: _140  and  _141
REMARK   61  A    between atoms: _141  and  _142
REMARK   62  A    between atoms: _142  and  _143
REMARK   63  A    between atoms: _143  and  _144
REMARK   64  A    between atoms: _148  and  _150
REMARK   65  A    between atoms: _150  and  _151
REMARK   66  A    between atoms: _150  and  _153
REMARK   67  A    between atoms: _153  and  _154
REMARK   68  A    between atoms: _157  and  _159
REMARK   69  A    between atoms: _159  and  _160
REMARK   70  A    between atoms: _159  and  _162
REMARK   71  A    between atoms: _162  and  _163
REMARK   72  A    between atoms: _166  and  _168
REMARK   73  A    between atoms: _168  and  _169
REMARK   74  A    between atoms: _168  and  _171
REMARK   75  A    between atoms: _171  and  _172
REMARK   76  A    between atoms: _175  and  _177
REMARK   77  A    between atoms: _177  and  _178
REMARK   78  A    between atoms: _177  and  _180
REMARK   79  A    between atoms: _180  and  _181
REMARK   80  A    between atoms: _181  and  _182
REMARK   81  A    between atoms: _182  and  _183
REMARK   82  A    between atoms: _183  and  _184
REMARK   83  A    between atoms: _188  and  _190
REMARK   84  A    between atoms: _190  and  _191
REMARK   85  A    between atoms: _190  and  _193
REMARK   86  A    between atoms: _196  and  _198
REMARK   87  A    between atoms: _198  and  _199
REMARK   88  A    between atoms: _198  and  _201
REMARK   89  A    between atoms: _201  and  _202
REMARK   90  A    between atoms: _205  and  _207
REMARK   91  A    between atoms: _207  and  _208
REMARK   92  A    between atoms: _207  and  _210
REMARK   93  A    between atoms: _210  and  _211
REMARK   94  A    between atoms: _211  and  _212
REMARK   95  A    between atoms: _212  and  _213
REMARK   96  A    between atoms: _213  and  _214
REMARK   97  A    between atoms: _218  and  _220
REMARK   98  A    between atoms: _220  and  _221
REMARK   99  A    between atoms: _220  and  _223
REMARK  100  A    between atoms: _223  and  _224
REMARK  101  A    between atoms: _224  and  _225
REMARK  102  A    between atoms: _230  and  _232
REMARK  103  A    between atoms: _232  and  _233
REMARK  104  A    between atoms: _232  and  _235
REMARK  105  A    between atoms: _235  and  _236
REMARK  106  A    between atoms: _239  and  _241
REMARK  107  A    between atoms: _241  and  _242
REMARK  108  A    between atoms: _241  and  _244
REMARK  109  A    between atoms: _244  and  _245
REMARK  110  A    between atoms: _250  and  _252
REMARK  111  A    between atoms: _252  and  _253
REMARK  112  A    between atoms: _252  and  _255
REMARK  113  A    between atoms: _255  and  _256
REMARK  114  A    between atoms: _259  and  _261
REMARK  115  A    between atoms: _261  and  _262
REMARK  116  A    between atoms: _261  and  _264
REMARK  117  A    between atoms: _264  and  _265
REMARK  118  A    between atoms: _268  and  _270
REMARK  119  A    between atoms: _270  and  _271
REMARK  120  A    between atoms: _270  and  _273
REMARK  121  A    between atoms: _273  and  _274
REMARK  122  A    between atoms: _274  and  _275
REMARK  123  A    between atoms: _278  and  _280
REMARK  124  A    between atoms: _280  and  _281
REMARK  125  A    between atoms: _280  and  _283
REMARK  126  A    between atoms: _283  and  _284
REMARK  127  A    between atoms: _284  and  _285
REMARK  128  A    between atoms: _285  and  _286
REMARK  129  A    between atoms: _286  and  _287
REMARK  130  A    between atoms: _291  and  _293
REMARK  131  A    between atoms: _293  and  _294
REMARK  132  A    between atoms: _293  and  _296
REMARK  133  A    between atoms: _296  and  _297
REMARK  134  A    between atoms: _300  and  _302
REMARK  135  A    between atoms: _302  and  _303
REMARK  136  A    between atoms: _302  and  _305
REMARK  137  A    between atoms: _308  and  _310
REMARK  138  A    between atoms: _310  and  _311
REMARK  139  A    between atoms: _310  and  _313
REMARK  140  A    between atoms: _313  and  _314
REMARK  141  A    between atoms: _314  and  _315
REMARK  142  A    between atoms: _315  and  _316
REMARK  143  A    between atoms: _316  and  _317
REMARK  144  A    between atoms: _321  and  _323
REMARK  145  A    between atoms: _323  and  _324
REMARK  146  A    between atoms: _323  and  _326
REMARK  147  A    between atoms: _326  and  _327
REMARK  148  A    between atoms: _330  and  _332
REMARK  149  A    between atoms: _332  and  _333
REMARK  150  A    between atoms: _332  and  _335
REMARK  151  A    between atoms: _335  and  _336
REMARK  152  A    between atoms: _336  and  _337
REMARK  153  A    between atoms: _339  and  _341
REMARK  154  A    between atoms: _341  and  _342
REMARK  155  A    between atoms: _341  and  _344
REMARK  156  A    between atoms: _344  and  _345
REMARK  157  A    between atoms: _345  and  _346
REMARK  158  A    between atoms: _348  and  _350
REMARK  159  A    between atoms: _350  and  _351
REMARK  160  A    between atoms: _350  and  _353
REMARK  161  A    between atoms: _353  and  _354
REMARK  162  A    between atoms: _354  and  _355
REMARK  163  A    between atoms: _358  and  _360
REMARK  164  A    between atoms: _360  and  _361
REMARK  165  A    between atoms: _360  and  _363
REMARK  166  A    between atoms: _363  and  _364
REMARK  167  A    between atoms: _369  and  _370
REMARK  168  A    between atoms: _372  and  _374
REMARK  169  A    between atoms: _374  and  _375
REMARK  170  A    between atoms: _374  and  _377
REMARK  171  A    between atoms: _381  and  _382
REMARK  172  A    between atoms: _387  and  _389
REMARK  173  A    between atoms: _389  and  _390
REMARK  174  A    between atoms: _392  and  _394
REMARK  175  A    between atoms: _394  and  _395
REMARK  176  A    between atoms: _397  and  _399
REMARK  177  A    between atoms: _399  and  _400
REMARK  178  A    between atoms: _399  and  _402
REMARK  179  A    between atoms: _402  and  _403
REMARK  180  A    between atoms: _403  and  _404
REMARK  181  A    between atoms: _407  and  _409
REMARK  182  A    between atoms: _409  and  _410
REMARK  183  A    between atoms: _409  and  _412
REMARK  184  A    between atoms: _412  and  _413
REMARK  185  A    between atoms: _413  and  _414
REMARK  186  A    between atoms: _416  and  _418
REMARK  187  A    between atoms: _418  and  _419
REMARK  188  A    between atoms: _418  and  _421
REMARK  189  A    between atoms: _421  and  _422
REMARK  190  A    between atoms: _428  and  _430
REMARK  191  A    between atoms: _430  and  _431
REMARK  192  A    between atoms: _430  and  _433
REMARK  193  A    between atoms: _433  and  _434
REMARK  194  A    between atoms: _439  and  _440
REMARK  195  A    between atoms: _442  and  _444
REMARK  196  A    between atoms: _444  and  _445
REMARK  197  A    between atoms: _444  and  _447
REMARK  198  A    between atoms: _447  and  _448
REMARK  199  A    between atoms: _451  and  _453
REMARK  200  A    between atoms: _453  and  _454
REMARK  201  A    between atoms: _453  and  _456
REMARK  202  A    between atoms: _456  and  _457
REMARK  203  A    between atoms: _457  and  _458
REMARK  204  A    between atoms: _458  and  _459
REMARK  205  A    between atoms: _459  and  _460
REMARK  206  A    between atoms: _465  and  _466
REMARK  207  A    between atoms: _471  and  _473
REMARK  208  A    between atoms: _473  and  _474
REMARK  209  A    between atoms: _473  and  _476
REMARK  210  A    between atoms: _476  and  _477
REMARK  211  A    between atoms: _477  and  _478
REMARK  212  A    between atoms: _481  and  _483
REMARK  213  A    between atoms: _483  and  _484
REMARK  214  A    between atoms: _483  and  _486
REMARK  215  A    between atoms: _486  and  _487
REMARK  216  A    between atoms: _492  and  _494
REMARK  217  A    between atoms: _494  and  _495
REMARK  218  A    between atoms: _494  and  _497
REMARK  219  A    between atoms: _497  and  _498
REMARK  220  A    between atoms: _501  and  _503
REMARK  221  A    between atoms: _503  and  _504
REMARK  222  A    between atoms: _503  and  _506
REMARK  223  A    between atoms: _506  and  _507
REMARK  224  A    between atoms: _510  and  _512
REMARK  225  A    between atoms: _512  and  _513
REMARK  226  A    between atoms: _512  and  _515
REMARK  227  A    between atoms: _515  and  _516
REMARK  228  A    between atoms: _519  and  _521
REMARK  229  A    between atoms: _521  and  _522
REMARK  230  A    between atoms: _521  and  _524
REMARK  231  A    between atoms: _524  and  _525
REMARK  232  A    between atoms: _525  and  _526
REMARK  233  A    between atoms: _531  and  _533
REMARK  234  A    between atoms: _533  and  _534
REMARK  235  A    between atoms: _533  and  _536
REMARK  236  A    between atoms: _539  and  _541
REMARK  237  A    between atoms: _541  and  _542
REMARK  238  A    between atoms: _541  and  _544
REMARK  239  A    between atoms: _544  and  _545
REMARK  240  A    between atoms: _548  and  _550
REMARK  241  A    between atoms: _550  and  _551
REMARK  242  A    between atoms: _550  and  _553
REMARK  243  A    between atoms: _553  and  _554
REMARK  244  A    between atoms: _557  and  _559
REMARK  245  A    between atoms: _559  and  _560
REMARK  246  A    between atoms: _559  and  _562
REMARK  247  A    between atoms: _562  and  _563
REMARK  248  A    between atoms: _569  and  _571
REMARK  249  A    between atoms: _571  and  _572
REMARK  250  A    between atoms: _574  and  _576
REMARK  251  A    between atoms: _576  and  _577
REMARK  252  A    between atoms: _576  and  _579
REMARK  253  A    between atoms: _579  and  _580
REMARK  254  A    between atoms: _586  and  _588
REMARK  255  A    between atoms: _588  and  _589
REMARK  256  A    between atoms: _592  and  _594
REMARK  257  A    between atoms: _594  and  _595
REMARK  258  A    between atoms: _594  and  _597
REMARK  259  A    between atoms: _599  and  _601
REMARK  260  A    between atoms: _601  and  _602
REMARK  261  A    between atoms: _604  and  _606
REMARK  262  A    between atoms: _606  and  _607
REMARK  263  A    between atoms: _606  and  _609
REMARK  264  A    between atoms: _609  and  _610
REMARK  265  A    between atoms: _616  and  _618
REMARK  266  A    between atoms: _618  and  _619
REMARK  267  A    between atoms: _618  and  _621
REMARK  268  A    between atoms: _621  and  _622
REMARK  269  A    between atoms: _627  and  _628
REMARK                            x       y       z     vdW  Elec       q    Type
REMARK                         _______ _______ _______ _____ _____    ______ ____
ROOT
ATOM      1  CA  PHE A   7      -0.130  17.532  37.349  0.00  0.00    +0.153 C 
ENDROOT
BRANCH   1   2
ATOM      2  C   PHE A   7       0.943  18.296  38.125  0.00  0.00    +0.241 C 
ATOM      3  O   PHE A   7       1.399  17.826  39.139  0.00  0.00    -0.273 OA
ATOM      4  N   GLY A   8       1.355  19.457  37.639  0.00  0.00    -0.295 N 
ATOM      5  H   GLY A   8       0.937  19.806  36.753  0.00  0.00    +0.150 HD
BRANCH   4   6
ATOM      6  CA  GLY A   8       2.367  20.258  38.298  0.00  0.00    +0.176 C 
BRANCH   6   7
ATOM      7  C   GLY A   8       3.067  21.268  37.405  0.00  0.00    +0.243 C 
ATOM      8  N   ARG A   9       4.399  21.251  37.414  0.00  0.00    -0.297 N 
ATOM      9  H   ARG A   9       4.892  20.407  37.769  0.00  0.00    +0.150 HD
ATOM     10  O   GLY A   8       2.418  22.065  36.719  0.00  0.00    -0.273 OA
BRANCH   8  11
ATOM     11  CA  ARG A   9       5.191  22.396  36.935  0.00  0.00    +0.149 C 
BRANCH  11  12
ATOM     12  C   ARG A   9       6.658  22.021  36.732  0.00  0.00    +0.241 C 
ATOM     13  O   ARG A   9       7.109  21.033  37.287  0.00  0.00    -0.273 OA
ATOM     14  N   VAL A  10       7.371  22.785  35.905  0.00  0.00    -0.297 N 
ATOM     15  H   VAL A  10       6.878  23.497  35.330  0.00  0.00    +0.150 HD
BRANCH  14  16
ATOM     16  CA  VAL A  10       8.798  22.660  35.779  0.00  0.00    +0.149 C 
BRANCH  16  17
ATOM     17  C   VAL A  10       9.381  23.932  36.393  0.00  0.00    +0.241 C 
ATOM     18  N   MET A  11      10.326  23.804  37.338  0.00  0.00    -0.297 N 
ATOM     19  H   MET A  11      10.655  22.853  37.600  0.00  0.00    +0.150 HD
ATOM     20  O   VAL A  10       8.978  25.012  36.006  0.00  0.00    -0.273 OA
BRANCH  18  21
ATOM     21  CA  MET A  11      10.907  24.972  38.010  0.00  0.00    +0.149 C 
BRANCH  21  22
ATOM     22  C   MET A  11      12.407  25.073  37.863  0.00  0.00    +0.241 C 
ATOM     23  O   MET A  11      13.122  24.072  37.917  0.00  0.00    -0.273 OA
ATOM     24  N   LEU A  12      12.886  26.300  37.682  0.00  0.00    -0.298 N 
ATOM     25  H   LEU A  12      12.238  27.074  37.433  0.00  0.00    +0.150 HD
BRANCH  24  26
ATOM     26  CA  LEU A  12      14.307  26.570  37.829  0.00  0.00    +0.137 C 
BRANCH  26  27
ATOM     27  C   LEU A  12      14.639  26.207  39.234  0.00  0.00    +0.227 C 
ATOM     28  O   LEU A  12      13.987  26.689  40.138  0.00  0.00    -0.286 OA
ENDBRANCH  26  27
BRANCH  26  29
ATOM     29  CB  LEU A  12      14.654  28.033  37.661  0.00  0.00    +0.028 C 
BRANCH  29  30
ATOM     30  CG  LEU A  12      15.978  28.466  37.025  0.00  0.00    +0.002 C 
ATOM     31  CD2 LEU A  12      16.458  29.736  37.709  0.00  0.00    +0.000 C 
ATOM     32  CD1 LEU A  12      17.060  27.432  36.954  0.00  0.00    +0.000 C 
ENDBRANCH  29  30
ENDBRANCH  26  29
ENDBRANCH  24  26
ENDBRANCH  21  22
BRANCH  21  33
ATOM     33  CB  MET A  11      10.602  24.967  39.507  0.00  0.00    +0.041 C 
BRANCH  33  34
ATOM     34  CG  MET A  11       9.131  24.870  39.938  0.00  0.00    +0.060 C 
BRANCH  34  35
ATOM     35  SD  MET A  11       8.988  25.415  41.683  0.00  0.00    -0.139 S 
ATOM     36  CE  MET A  11       9.440  24.207  42.387  0.00  0.00    +0.069 C 
ENDBRANCH  34  35
ENDBRANCH  33  34
ENDBRANCH  21  33
ENDBRANCH  18  21
ENDBRANCH  16  17
BRANCH  16  37
ATOM     37  CB  VAL A  10       9.257  22.541  34.289  0.00  0.00    +0.027 C 
ATOM     38  CG2 VAL A  10      10.798  22.767  34.146  0.00  0.00    +0.002 C 
ATOM     39  CG1 VAL A  10       8.847  21.247  33.691  0.00  0.00    +0.002 C 
ENDBRANCH  16  37
ENDBRANCH  14  16
ENDBRANCH  11  12
BRANCH  11  40
ATOM     40  CB  ARG A   9       5.076  23.588  37.932  0.00  0.00    +0.033 C 
BRANCH  40  41
ATOM     41  CG  ARG A   9       5.697  23.362  39.340  0.00  0.00    +0.045 C 
BRANCH  41  42
ATOM     42  CD  ARG A   9       4.867  23.965  40.511  0.00  0.00    +0.174 C 
BRANCH  42  43
ATOM     43  NE  ARG A   9       4.613  25.322  40.151  0.00  0.00    -0.265 N 
ATOM     44  CZ  ARG A   9       3.443  25.941  40.026  0.00  0.00    +0.342 C 
ATOM     45  NH2 ARG A   9       2.285  25.396  40.302  0.00  0.00    -0.292 N 
ATOM     46 HH21 ARG A   9       2.240  24.415  40.644  0.00  0.00    +0.255 HD
ATOM     47 HH22 ARG A   9       1.410  25.944  40.179  0.00  0.00    +0.255 HD
ATOM     48  NH1 ARG A   9       3.486  27.186  39.610  0.00  0.00    -0.292 N 
ATOM     49 HH11 ARG A   9       2.605  27.725  39.492  0.00  0.00    +0.255 HD
ATOM     50 HH12 ARG A   9       4.401  27.632  39.399  0.00  0.00    +0.255 HD
ATOM     51  HE  ARG A   9       5.454  25.904  39.961  0.00  0.00    +0.259 HD
ENDBRANCH  42  43
ENDBRANCH  41  42
ENDBRANCH  40  41
ENDBRANCH  11  40
ENDBRANCH   8  11
ENDBRANCH   6   7
ENDBRANCH   4   6
ENDBRANCH   1   2
BRANCH   1  54
ATOM     52  C   SER A   6      -1.631  18.675  35.773  0.00  0.00    +0.243 C 
ATOM     53  O   SER A   6      -2.412  18.967  36.649  0.00  0.00    -0.273 OA
ATOM     54  N   PHE A   7      -0.473  18.064  36.016  0.00  0.00    -0.297 N 
ATOM     55  H   PHE A   7       0.212  17.958  35.241  0.00  0.00    +0.150 HD
BRANCH  52  56
ATOM     56  CA  SER A   6      -1.953  19.042  34.335  0.00  0.00    +0.178 C 
BRANCH  56  59
ATOM     57  C   GLY A   5      -0.017  20.500  34.010  0.00  0.00    +0.243 C 
ATOM     58  O   GLY A   5      -0.069  20.900  35.164  0.00  0.00    -0.273 OA
ATOM     59  N   SER A   6      -0.799  19.523  33.556  0.00  0.00    -0.295 N 
ATOM     60  H   SER A   6      -0.591  19.091  32.633  0.00  0.00    +0.150 HD
BRANCH  57  61
ATOM     61  CA  GLY A   5       1.040  21.032  33.044  0.00  0.00    +0.176 C 
BRANCH  61  63
ATOM     62  C   THR A   4       2.547  22.959  33.017  0.00  0.00    +0.243 C 
ATOM     63  N   GLY A   5       1.902  22.015  33.694  0.00  0.00    -0.295 N 
ATOM     64  H   GLY A   5       2.016  21.975  34.727  0.00  0.00    +0.150 HD
ATOM     65  O   THR A   4       2.683  22.966  31.756  0.00  0.00    -0.273 OA
BRANCH  62  66
ATOM     66  CA  THR A   4       3.075  24.077  33.926  0.00  0.00    +0.176 C 
BRANCH  66  69
ATOM     67  C   GLY A   3       5.267  25.251  33.751  0.00  0.00    +0.243 C 
ATOM     68  O   GLY A   3       5.667  24.933  34.883  0.00  0.00    -0.273 OA
ATOM     69  N   THR A   4       4.076  24.909  33.245  0.00  0.00    -0.295 N 
ATOM     70  H   THR A   4       3.841  25.260  32.295  0.00  0.00    +0.150 HD
BRANCH  67  71
ATOM     71  CA  GLY A   3       6.122  26.148  32.870  0.00  0.00    +0.176 C 
BRANCH  71  73
ATOM     72  C   LEU A   2       8.108  27.543  33.138  0.00  0.00    +0.241 C 
ATOM     73  N   GLY A   3       7.132  26.811  33.672  0.00  0.00    -0.295 N 
ATOM     74  H   GLY A   3       7.093  26.711  34.706  0.00  0.00    +0.150 HD
ATOM     75  O   LEU A   2       8.181  27.839  31.926  0.00  0.00    -0.273 OA
BRANCH  72  76
ATOM     76  CA  LEU A   2       9.212  27.975  34.093  0.00  0.00    +0.149 C 
BRANCH  76  79
ATOM     77  C   THR A   1       8.528  28.782  36.320  0.00  0.00    +0.241 C 
ATOM     78  O   THR A   1       8.316  29.961  35.929  0.00  0.00    -0.274 OA
ATOM     79  N   LEU A   2       8.941  27.779  35.522  0.00  0.00    -0.297 N 
ATOM     80  H   LEU A   2       9.072  26.833  35.933  0.00  0.00    +0.150 HD
BRANCH  77  81
ATOM     81  CA  THR A   1       8.282  28.392  37.784  0.00  0.00    +0.172 C 
BRANCH  81  82
ATOM     82  N   THR A   1       9.016  29.260  38.709  0.00  0.00    -0.236 NA
ATOM     83  H   THR A   1       8.506  30.017  39.207  0.00  0.00    +0.142 HD
ENDBRANCH  81  82
BRANCH  81  84
ATOM     84  CB  THR A   1       6.807  28.405  38.077  0.00  0.00    +0.135 C 
ATOM     85  CG2 THR A   1       6.084  27.607  37.014  0.00  0.00    +0.034 C 
BRANCH  84  86
ATOM     86  OG1 THR A   1       6.556  27.706  39.321  0.00  0.00    -0.383 OA
ATOM     87  HG1 THR A   1       7.043  28.157  40.056  0.00  0.00    +0.210 HD
ENDBRANCH  84  86
ENDBRANCH  81  84
ENDBRANCH  77  81
ENDBRANCH  76  79
BRANCH  76  88
ATOM     88  CB  LEU A   2      10.469  27.226  33.682  0.00  0.00    +0.029 C 
BRANCH  88  89
ATOM     89  CG  LEU A   2      11.688  27.560  34.519  0.00  0.00    +0.002 C 
ATOM     90  CD2 LEU A   2      12.146  28.950  34.233  0.00  0.00    +0.000 C 
ATOM     91  CD1 LEU A   2      12.771  26.581  34.229  0.00  0.00    +0.000 C 
ENDBRANCH  88  89
ENDBRANCH  76  88
ENDBRANCH  72  76
ENDBRANCH  71  73
ENDBRANCH  67  71
ENDBRANCH  66  69
BRANCH  66  92
ATOM     92  CB  THR A   4       1.818  24.899  34.409  0.00  0.00    +0.137 C 
ATOM     93  CG2 THR A   4       2.143  25.899  35.547  0.00  0.00    +0.034 C 
BRANCH  92  94
ATOM     94  OG1 THR A   4       1.354  25.730  33.352  0.00  0.00    -0.382 OA
ATOM     95  HG1 THR A   4       0.566  26.244  33.659  0.00  0.00    +0.210 HD
ENDBRANCH  92  94
ENDBRANCH  66  92
ENDBRANCH  62  66
ENDBRANCH  61  63
ENDBRANCH  57  61
ENDBRANCH  56  59
BRANCH  56  96
ATOM     96  CB  SER A   6      -2.573  17.848  33.646  0.00  0.00    +0.166 C 
BRANCH  96  97
ATOM     97  OG  SER A   6      -2.745  18.142  32.257  0.00  0.00    -0.380 OA
ATOM     98  H   SER A   6      -3.151  17.361  31.803  0.00  0.00    +0.211 HD
ENDBRANCH  96  97
ENDBRANCH  56  96
ENDBRANCH  52  56
ENDBRANCH   1  54
BRANCH   1  99
ATOM     99  CB  PHE A   7       0.325  16.079  37.232  0.00  0.00    +0.055 C 
BRANCH  99 100
ATOM    100  CG  PHE A   7      -0.506  15.258  36.278  0.00  0.00    -0.020 A 
ATOM    101  CD2 PHE A   7      -1.888  15.245  36.398  0.00  0.00    -0.004 A 
ATOM    102  CE2 PHE A   7      -2.651  14.520  35.570  0.00  0.00    -0.000 A 
ATOM    103  CZ  PHE A   7      -2.055  13.752  34.574  0.00  0.00    -0.000 A 
ATOM    104  CE1 PHE A   7      -0.657  13.756  34.431  0.00  0.00    -0.000 A 
ATOM    105  CD1 PHE A   7       0.098  14.498  35.294  0.00  0.00    -0.004 A 
ENDBRANCH  99 100
ENDBRANCH   1  99
TORSDOF 44
REMARK  Name = ../refined-set-2016/1xh4/1xh4_pocket.pdb
REMARK  269 active torsions:
REMARK  status: ('A' for Active; 'I' for Inactive)
REMARK    1  A    between atoms: _1  and  _3
REMARK    2  A    between atoms: _3  and  _4
REMARK    3  A    between atoms: _3  and  _6
REMARK    4  A    between atoms: _6  and  _7
REMARK    5  A    between atoms: _10  and  _12
REMARK    6  A    between atoms: _12  and  _13
REMARK    7  A    between atoms: _12  and  _15
REMARK    8  A    between atoms: _15  and  _16
REMARK    9  A    between atoms: _19  and  _21
REMARK   10  A    between atoms: _21  and  _22
REMARK   11  A    between atoms: _24  and  _26
REMARK   12  A    between atoms: _26  and  _27
REMARK   13  A    between atoms: _26  and  _29
REMARK   14  A    between atoms: _29  and  _30
REMARK   15  A    between atoms: _33  and  _35
REMARK   16  A    between atoms: _35  and  _36
REMARK   17  A    between atoms: _38  and  _40
REMARK   18  A    between atoms: _40  and  _41
REMARK   19  A    between atoms: _40  and  _43
REMARK   20  A    between atoms: _43  and  _44
REMARK   21  A    between atoms: _46  and  _48
REMARK   22  A    between atoms: _48  and  _49
REMARK   23  A    between atoms: _48  and  _51
REMARK   24  A    between atoms: _51  and  _52
REMARK   25  A    between atoms: _58  and  _60
REMARK   26  A    between atoms: _60  and  _61
REMARK   27  A    between atoms: _63  and  _65
REMARK   28  A    between atoms: _65  and  _66
REMARK   29  A    between atoms: _65  and  _68
REMARK   30  A    between atoms: _68  and  _69
REMARK   31  A    between atoms: _69  and  _70
REMARK   32  A    between atoms: _70  and  _71
REMARK   33  A    between atoms: _80  and  _82
REMARK   34  A    between atoms: _82  and  _83
REMARK   35  A    between atoms: _82  and  _85
REMARK   36  A    between atoms: _88  and  _90
REMARK   37  A    between atoms: _90  and  _91
REMARK   38  A    between atoms: _90  and  _93
REMARK   39  A    between atoms: _93  and  _94
REMARK   40  A    between atoms: _94  and  _95
REMARK   41  A    between atoms: _97  and  _99
REMARK   42  A    between atoms: _99  and  _100
REMARK   43  A    between atoms: _99  and  _102
REMARK   44  A    between atoms: _102  and  _103
REMARK   45  A    between atoms: _106  and  _108
REMARK   46  A    between atoms: _108  and  _109
REMARK   47  A    between atoms: _108  and  _111
REMARK   48  A    between atoms: _111  and  _112
REMARK   49  A    between atoms: _117  and  _118
REMARK   50  A    between atoms: _120  and  _122
REMARK   51  A    between atoms: _122  and  _123
REMARK   52  A    between atoms: _126  and  _128
REMARK   53  A    between atoms: _128  and  _129
REMARK   54  A    between atoms: _128  and  _131
REMARK   55  A    between atoms: _131  and  _132
REMARK   56  A    between atoms: _132  and  _133
REMARK   57  A    between atoms: _135  and  _137
REMARK   58  A    between atoms: _137  and  _138
REMARK   59  A    between atoms: _137  and  _140
REMARK   60  A    between atoms: _140  and  _141
REMARK   61  A    between atoms: _141  and  _142
REMARK   62  A    between atoms: _142  and  _143
REMARK   63  A    between atoms: _143  and  _144
REMARK   64  A    between atoms: _148  and  _150
REMARK   65  A    between atoms: _150  and  _151
REMARK   66  A    between atoms: _150  and  _153
REMARK   67  A    between atoms: _153  and  _154
REMARK   68  A    between atoms: _157  and  _159
REMARK   69  A    between atoms: _159  and  _160
REMARK   70  A    between atoms: _159  and  _162
REMARK   71  A    between atoms: _162  and  _163
REMARK   72  A    between atoms: _166  and  _168
REMARK   73  A    between atoms: _168  and  _169
REMARK   74  A    between atoms: _168  and  _171
REMARK   75  A    between atoms: _171  and  _172
REMARK   76  A    between atoms: _175  and  _177
REMARK   77  A    between atoms: _177  and  _178
REMARK   78  A    between atoms: _177  and  _180
REMARK   79  A    between atoms: _180  and  _181
REMARK   80  A    between atoms: _181  and  _182
REMARK   81  A    between atoms: _182  and  _183
REMARK   82  A    between atoms: _183  and  _184
REMARK   83  A    between atoms: _188  and  _190
REMARK   84  A    between atoms: _190  and  _191
REMARK   85  A    between atoms: _190  and  _193
REMARK   86  A    between atoms: _196  and  _198
REMARK   87  A    between atoms: _198  and  _199
REMARK   88  A    between atoms: _198  and  _201
REMARK   89  A    between atoms: _201  and  _202
REMARK   90  A    between atoms: _205  and  _207
REMARK   91  A    between atoms: _207  and  _208
REMARK   92  A    between atoms: _207  and  _210
REMARK   93  A    between atoms: _210  and  _211
REMARK   94  A    between atoms: _211  and  _212
REMARK   95  A    between atoms: _212  and  _213
REMARK   96  A    between atoms: _213  and  _214
REMARK   97  A    between atoms: _218  and  _220
REMARK   98  A    between atoms: _220  and  _221
REMARK   99  A    between atoms: _220  and  _223
REMARK  100  A    between atoms: _223  and  _224
REMARK  101  A    between atoms: _224  and  _225
REMARK  102  A    between atoms: _230  and  _232
REMARK  103  A    between atoms: _232  and  _233
REMARK  104  A    between atoms: _232  and  _235
REMARK  105  A    between atoms: _235  and  _236
REMARK  106  A    between atoms: _239  and  _241
REMARK  107  A    between atoms: _241  and  _242
REMARK  108  A    between atoms: _241  and  _244
REMARK  109  A    between atoms: _244  and  _245
REMARK  110  A    between atoms: _250  and  _252
REMARK  111  A    between atoms: _252  and  _253
REMARK  112  A    between atoms: _252  and  _255
REMARK  113  A    between atoms: _255  and  _256
REMARK  114  A    between atoms: _259  and  _261
REMARK  115  A    between atoms: _261  and  _262
REMARK  116  A    between atoms: _261  and  _264
REMARK  117  A    between atoms: _264  and  _265
REMARK  118  A    between atoms: _268  and  _270
REMARK  119  A    between atoms: _270  and  _271
REMARK  120  A    between atoms: _270  and  _273
REMARK  121  A    between atoms: _273  and  _274
REMARK  122  A    between atoms: _274  and  _275
REMARK  123  A    between atoms: _278  and  _280
REMARK  124  A    between atoms: _280  and  _281
REMARK  125  A    between atoms: _280  and  _283
REMARK  126  A    between atoms: _283  and  _284
REMARK  127  A    between atoms: _284  and  _285
REMARK  128  A    between atoms: _285  and  _286
REMARK  129  A    between atoms: _286  and  _287
REMARK  130  A    between atoms: _291  and  _293
REMARK  131  A    between atoms: _293  and  _294
REMARK  132  A    between atoms: _293  and  _296
REMARK  133  A    between atoms: _296  and  _297
REMARK  134  A    between atoms: _300  and  _302
REMARK  135  A    between atoms: _302  and  _303
REMARK  136  A    between atoms: _302  and  _305
REMARK  137  A    between atoms: _308  and  _310
REMARK  138  A    between atoms: _310  and  _311
REMARK  139  A    between atoms: _310  and  _313
REMARK  140  A    between atoms: _313  and  _314
REMARK  141  A    between atoms: _314  and  _315
REMARK  142  A    between atoms: _315  and  _316
REMARK  143  A    between atoms: _316  and  _317
REMARK  144  A    between atoms: _321  and  _323
REMARK  145  A    between atoms: _323  and  _324
REMARK  146  A    between atoms: _323  and  _326
REMARK  147  A    between atoms: _326  and  _327
REMARK  148  A    between atoms: _330  and  _332
REMARK  149  A    between atoms: _332  and  _333
REMARK  150  A    between atoms: _332  and  _335
REMARK  151  A    between atoms: _335  and  _336
REMARK  152  A    between atoms: _336  and  _337
REMARK  153  A    between atoms: _339  and  _341
REMARK  154  A    between atoms: _341  and  _342
REMARK  155  A    between atoms: _341  and  _344
REMARK  156  A    between atoms: _344  and  _345
REMARK  157  A    between atoms: _345  and  _346
REMARK  158  A    between atoms: _348  and  _350
REMARK  159  A    between atoms: _350  and  _351
REMARK  160  A    between atoms: _350  and  _353
REMARK  161  A    between atoms: _353  and  _354
REMARK  162  A    between atoms: _354  and  _355
REMARK  163  A    between atoms: _358  and  _360
REMARK  164  A    between atoms: _360  and  _361
REMARK  165  A    between atoms: _360  and  _363
REMARK  166  A    between atoms: _363  and  _364
REMARK  167  A    between atoms: _369  and  _370
REMARK  168  A    between atoms: _372  and  _374
REMARK  169  A    between atoms: _374  and  _375
REMARK  170  A    between atoms: _374  and  _377
REMARK  171  A    between atoms: _381  and  _382
REMARK  172  A    between atoms: _387  and  _389
REMARK  173  A    between atoms: _389  and  _390
REMARK  174  A    between atoms: _392  and  _394
REMARK  175  A    between atoms: _394  and  _395
REMARK  176  A    between atoms: _397  and  _399
REMARK  177  A    between atoms: _399  and  _400
REMARK  178  A    between atoms: _399  and  _402
REMARK  179  A    between atoms: _402  and  _403
REMARK  180  A    between atoms: _403  and  _404
REMARK  181  A    between atoms: _407  and  _409
REMARK  182  A    between atoms: _409  and  _410
REMARK  183  A    between atoms: _409  and  _412
REMARK  184  A    between atoms: _412  and  _413
REMARK  185  A    between atoms: _413  and  _414
REMARK  186  A    between atoms: _416  and  _418
REMARK  187  A    between atoms: _418  and  _419
REMARK  188  A    between atoms: _418  and  _421
REMARK  189  A    between atoms: _421  and  _422
REMARK  190  A    between atoms: _428  and  _430
REMARK  191  A    between atoms: _430  and  _431
REMARK  192  A    between atoms: _430  and  _433
REMARK  193  A    between atoms: _433  and  _434
REMARK  194  A    between atoms: _439  and  _440
REMARK  195  A    between atoms: _442  and  _444
REMARK  196  A    between atoms: _444  and  _445
REMARK  197  A    between atoms: _444  and  _447
REMARK  198  A    between atoms: _447  and  _448
REMARK  199  A    between atoms: _451  and  _453
REMARK  200  A    between atoms: _453  and  _454
REMARK  201  A    between atoms: _453  and  _456
REMARK  202  A    between atoms: _456  and  _457
REMARK  203  A    between atoms: _457  and  _458
REMARK  204  A    between atoms: _458  and  _459
REMARK  205  A    between atoms: _459  and  _460
REMARK  206  A    between atoms: _465  and  _466
REMARK  207  A    between atoms: _471  and  _473
REMARK  208  A    between atoms: _473  and  _474
REMARK  209  A    between atoms: _473  and  _476
REMARK  210  A    between atoms: _476  and  _477
REMARK  211  A    between atoms: _477  and  _478
REMARK  212  A    between atoms: _481  and  _483
REMARK  213  A    between atoms: _483  and  _484
REMARK  214  A    between atoms: _483  and  _486
REMARK  215  A    between atoms: _486  and  _487
REMARK  216  A    between atoms: _492  and  _494
REMARK  217  A    between atoms: _494  and  _495
REMARK  218  A    between atoms: _494  and  _497
REMARK  219  A    between atoms: _497  and  _498
REMARK  220  A    between atoms: _501  and  _503
REMARK  221  A    between atoms: _503  and  _504
REMARK  222  A    between atoms: _503  and  _506
REMARK  223  A    between atoms: _506  and  _507
REMARK  224  A    between atoms: _510  and  _512
REMARK  225  A    between atoms: _512  and  _513
REMARK  226  A    between atoms: _512  and  _515
REMARK  227  A    between atoms: _515  and  _516
REMARK  228  A    between atoms: _519  and  _521
REMARK  229  A    between atoms: _521  and  _522
REMARK  230  A    between atoms: _521  and  _524
REMARK  231  A    between atoms: _524  and  _525
REMARK  232  A    between atoms: _525  and  _526
REMARK  233  A    between atoms: _531  and  _533
REMARK  234  A    between atoms: _533  and  _534
REMARK  235  A    between atoms: _533  and  _536
REMARK  236  A    between atoms: _539  and  _541
REMARK  237  A    between atoms: _541  and  _542
REMARK  238  A    between atoms: _541  and  _544
REMARK  239  A    between atoms: _544  and  _545
REMARK  240  A    between atoms: _548  and  _550
REMARK  241  A    between atoms: _550  and  _551
REMARK  242  A    between atoms: _550  and  _553
REMARK  243  A    between atoms: _553  and  _554
REMARK  244  A    between atoms: _557  and  _559
REMARK  245  A    between atoms: _559  and  _560
REMARK  246  A    between atoms: _559  and  _562
REMARK  247  A    between atoms: _562  and  _563
REMARK  248  A    between atoms: _569  and  _571
REMARK  249  A    between atoms: _571  and  _572
REMARK  250  A    between atoms: _574  and  _576
REMARK  251  A    between atoms: _576  and  _577
REMARK  252  A    between atoms: _576  and  _579
REMARK  253  A    between atoms: _579  and  _580
REMARK  254  A    between atoms: _586  and  _588
REMARK  255  A    between atoms: _588  and  _589
REMARK  256  A    between atoms: _592  and  _594
REMARK  257  A    between atoms: _594  and  _595
REMARK  258  A    between atoms: _594  and  _597
REMARK  259  A    between atoms: _599  and  _601
REMARK  260  A    between atoms: _601  and  _602
REMARK  261  A    between atoms: _604  and  _606
REMARK  262  A    between atoms: _606  and  _607
REMARK  263  A    between atoms: _606  and  _609
REMARK  264  A    between atoms: _609  and  _610
REMARK  265  A    between atoms: _616  and  _618
REMARK  266  A    between atoms: _618  and  _619
REMARK  267  A    between atoms: _618  and  _621
REMARK  268  A    between atoms: _621  and  _622
REMARK  269  A    between atoms: _627  and  _628
REMARK                            x       y       z     vdW  Elec       q    Type
REMARK                         _______ _______ _______ _____ _____    ______ ____
ROOT
ATOM      1  CA  LYS A   4       9.638  18.753  36.911  0.00  0.00    +0.149 C 
ENDROOT
BRANCH   1   4
ATOM      2  C   MET A   3      11.477  20.173  37.650  0.00  0.00    +0.241 C 
ATOM      3  O   MET A   3      10.734  21.139  37.895  0.00  0.00    -0.273 OA
ATOM      4  N   LYS A   4      11.052  19.037  37.107  0.00  0.00    -0.297 N 
ATOM      5  H   LYS A   4      11.753  18.327  36.812  0.00  0.00    +0.150 HD
BRANCH   2   6
ATOM      6  CA  MET A   3      12.965  20.258  37.906  0.00  0.00    +0.149 C 
BRANCH   6   8
ATOM      7  C   ALA A   2      14.361  21.191  36.132  0.00  0.00    +0.241 C 
ATOM      8  N   MET A   3      13.528  21.377  37.159  0.00  0.00    -0.297 N 
ATOM      9  H   MET A   3      13.274  22.347  37.434  0.00  0.00    +0.150 HD
ATOM     10  O   ALA A   2      14.654  20.090  35.685  0.00  0.00    -0.273 OA
BRANCH   7  11
ATOM     11  CA  ALA A   2      14.999  22.433  35.518  0.00  0.00    +0.149 C 
ATOM     12  CB  ALA A   2      14.592  22.562  34.065  0.00  0.00    +0.031 C 
BRANCH  11  15
ATOM     13  C   TYR A   1      17.160  23.068  36.463  0.00  0.00    +0.239 C 
ATOM     14  O   TYR A   1      16.685  24.037  37.082  0.00  0.00    -0.274 OA
ATOM     15  N   ALA A   2      16.447  22.297  35.648  0.00  0.00    -0.297 N 
ATOM     16  H   ALA A   2      16.937  21.573  35.084  0.00  0.00    +0.150 HD
BRANCH  13  17
ATOM     17  CA  TYR A   1      18.633  22.688  36.613  0.00  0.00    +0.149 C 
BRANCH  17  18
ATOM     18  N   TYR A   1      19.366  23.743  37.333  0.00  0.00    -0.238 NA
ATOM     19  H   TYR A   1      18.921  24.160  38.175  0.00  0.00    +0.142 HD
ENDBRANCH  17  18
BRANCH  17  20
ATOM     20  CB  TYR A   1      18.709  21.376  37.399  0.00  0.00    +0.053 C 
BRANCH  20  21
ATOM     21  CG  TYR A   1      20.088  20.803  37.438  0.00  0.00    -0.020 A 
ATOM     22  CD2 TYR A   1      20.813  20.795  38.608  0.00  0.00    -0.001 A 
ATOM     23  CE2 TYR A   1      22.081  20.295  38.663  0.00  0.00    +0.036 A 
ATOM     24  CZ  TYR A   1      22.667  19.805  37.528  0.00  0.00    +0.134 A 
ATOM     25  CE1 TYR A   1      21.978  19.813  36.328  0.00  0.00    +0.036 A 
ATOM     26  CD1 TYR A   1      20.686  20.291  36.288  0.00  0.00    -0.001 A 
BRANCH  24  27
ATOM     27  OH  TYR A   1      23.940  19.323  37.617  0.00  0.00    -0.506 OA
ATOM     28  HH  TYR A   1      24.234  19.004  36.727  0.00  0.00    +0.292 HD
ENDBRANCH  24  27
ENDBRANCH  20  21
ENDBRANCH  17  20
ENDBRANCH  13  17
ENDBRANCH  11  15
ENDBRANCH   7  11
ENDBRANCH   6   8
BRANCH   6  29
ATOM     29  CB  MET A   3      13.241  20.406  39.402  0.00  0.00    +0.041 C 
BRANCH  29  30
ATOM     30  CG  MET A   3      12.509  19.383  40.292  0.00  0.00    +0.060 C 
BRANCH  30  31
ATOM     31  SD  MET A   3      12.592  19.752  42.074  0.00  0.00    -0.139 S 
ATOM     32  CE  MET A   3      14.205  19.193  42.264  0.00  0.00    +0.069 C 
ENDBRANCH  30  31
ENDBRANCH  29  30
ENDBRANCH   6  29
ENDBRANCH   2   6
ENDBRANCH   1   4
BRANCH   1  33
ATOM     33  C   LYS A   4       9.091  18.169  38.176  0.00  0.00    +0.241 C 
ATOM     34  O   LYS A   4       9.653  17.236  38.696  0.00  0.00    -0.273 OA
ATOM     35  N   ILE A   5       7.980  18.725  38.665  0.00  0.00    -0.297 N 
ATOM     36  H   ILE A   5       7.590  19.561  38.185  0.00  0.00    +0.150 HD
BRANCH  35  37
ATOM     37  CA  ILE A   5       7.285  18.208  39.850  0.00  0.00    +0.149 C 
BRANCH  37  38
ATOM     38  C   ILE A   5       5.902  17.752  39.436  0.00  0.00    +0.241 C 
ATOM     39  N   LEU A   6       5.550  16.495  39.746  0.00  0.00    -0.297 N 
ATOM     40  H   LEU A   6       6.222  15.890  40.260  0.00  0.00    +0.150 HD
ATOM     41  O   ILE A   5       5.162  18.532  38.852  0.00  0.00    -0.273 OA
BRANCH  39  42
ATOM     42  CA  LEU A   6       4.253  15.962  39.379  0.00  0.00    +0.149 C 
BRANCH  42  43
ATOM     43  C   LEU A   6       3.538  15.398  40.594  0.00  0.00    +0.241 C 
ATOM     44  O   LEU A   6       4.078  14.536  41.283  0.00  0.00    -0.273 OA
ATOM     45  N   ASP A   7       2.305  15.846  40.813  0.00  0.00    -0.298 N 
ATOM     46  H   ASP A   7       1.887  16.524  40.144  0.00  0.00    +0.150 HD
BRANCH  45  47
ATOM     47  CA  ASP A   7       1.524  15.414  41.962  0.00  0.00    +0.148 C 
BRANCH  47  48
ATOM     48  C   ASP A   7       0.940  14.006  41.660  0.00  0.00    +0.227 C 
ATOM     49  O   ASP A   7       0.039  13.899  40.813  0.00  0.00    -0.286 OA
ENDBRANCH  47  48
BRANCH  47  50
ATOM     50  CB  ASP A   7       0.422  16.448  42.224  0.00  0.00    +0.142 C 
BRANCH  50  51
ATOM     51  CG  ASP A   7      -0.456  16.111  43.412  0.00  0.00    +0.367 C 
ATOM     52  OD2 ASP A   7      -0.689  17.044  44.198  0.00  0.00    -0.246 OA
ATOM     53  OD1 ASP A   7      -1.023  15.009  43.599  0.00  0.00    -0.246 OA
ENDBRANCH  50  51
ENDBRANCH  47  50
ENDBRANCH  45  47
ENDBRANCH  42  43
BRANCH  42  54
ATOM     54  CB  LEU A   6       4.385  14.853  38.355  0.00  0.00    +0.029 C 
BRANCH  54  55
ATOM     55  CG  LEU A   6       5.061  15.213  37.055  0.00  0.00    +0.002 C 
ATOM     56  CD2 LEU A   6       4.197  16.141  36.278  0.00  0.00    +0.000 C 
ATOM     57  CD1 LEU A   6       5.334  13.937  36.243  0.00  0.00    +0.000 C 
ENDBRANCH  54  55
ENDBRANCH  42  54
ENDBRANCH  39  42
ENDBRANCH  37  38
BRANCH  37  58
ATOM     58  CB  ILE A   5       7.176  19.292  40.918  0.00  0.00    +0.027 C 
ATOM     59  CG2 ILE A   5       6.506  18.796  42.176  0.00  0.00    +0.002 C 
BRANCH  58  60
ATOM     60  CG1 ILE A   5       8.563  19.782  41.335  0.00  0.00    +0.002 C 
ATOM     61  CD1 ILE A   5       8.628  21.246  41.525  0.00  0.00    +0.000 C 
ENDBRANCH  58  60
ENDBRANCH  37  58
ENDBRANCH  35  37
ENDBRANCH   1  33
BRANCH   1  62
ATOM     62  CB  LYS A   4       9.415  17.756  35.765  0.00  0.00    +0.029 C 
BRANCH  62  63
ATOM     63  CG  LYS A   4       7.954  17.729  35.273  0.00  0.00    +0.000 C 
BRANCH  63  64
ATOM     64  CD  LYS A   4       7.714  16.794  34.116  0.00  0.00    -0.024 C 
BRANCH  64  65
ATOM     65  CE  LYS A   4       7.520  17.611  32.899  0.00  0.00    -0.086 C 
BRANCH  65  66
ATOM     66  NZ  LYS A   4       7.083  16.804  31.761  0.00  0.00    +0.380 N 
ATOM     67  HZ1 LYS A   4       6.179  16.343  31.991  0.00  0.00    -0.089 HD
ATOM     68  HZ2 LYS A   4       7.800  16.080  31.555  0.00  0.00    -0.089 HD
ATOM     69  HZ3 LYS A   4       6.959  17.417  30.930  0.00  0.00    -0.089 HD
ENDBRANCH  65  66
ENDBRANCH  64  65
ENDBRANCH  63  64
ENDBRANCH  62  63
ENDBRANCH   1  62
TORSDOF 31
REMARK  Name = ../refined-set-2016/1xh4/1xh4_pocket.pdb
REMARK  269 active torsions:
REMARK  status: ('A' for Active; 'I' for Inactive)
REMARK    1  A    between atoms: _1  and  _3
REMARK    2  A    between atoms: _3  and  _4
REMARK    3  A    between atoms: _3  and  _6
REMARK    4  A    between atoms: _6  and  _7
REMARK    5  A    between atoms: _10  and  _12
REMARK    6  A    between atoms: _12  and  _13
REMARK    7  A    between atoms: _12  and  _15
REMARK    8  A    between atoms: _15  and  _16
REMARK    9  A    between atoms: _19  and  _21
REMARK   10  A    between atoms: _21  and  _22
REMARK   11  A    between atoms: _24  and  _26
REMARK   12  A    between atoms: _26  and  _27
REMARK   13  A    between atoms: _26  and  _29
REMARK   14  A    between atoms: _29  and  _30
REMARK   15  A    between atoms: _33  and  _35
REMARK   16  A    between atoms: _35  and  _36
REMARK   17  A    between atoms: _38  and  _40
REMARK   18  A    between atoms: _40  and  _41
REMARK   19  A    between atoms: _40  and  _43
REMARK   20  A    between atoms: _43  and  _44
REMARK   21  A    between atoms: _46  and  _48
REMARK   22  A    between atoms: _48  and  _49
REMARK   23  A    between atoms: _48  and  _51
REMARK   24  A    between atoms: _51  and  _52
REMARK   25  A    between atoms: _58  and  _60
REMARK   26  A    between atoms: _60  and  _61
REMARK   27  A    between atoms: _63  and  _65
REMARK   28  A    between atoms: _65  and  _66
REMARK   29  A    between atoms: _65  and  _68
REMARK   30  A    between atoms: _68  and  _69
REMARK   31  A    between atoms: _69  and  _70
REMARK   32  A    between atoms: _70  and  _71
REMARK   33  A    between atoms: _80  and  _82
REMARK   34  A    between atoms: _82  and  _83
REMARK   35  A    between atoms: _82  and  _85
REMARK   36  A    between atoms: _88  and  _90
REMARK   37  A    between atoms: _90  and  _91
REMARK   38  A    between atoms: _90  and  _93
REMARK   39  A    between atoms: _93  and  _94
REMARK   40  A    between atoms: _94  and  _95
REMARK   41  A    between atoms: _97  and  _99
REMARK   42  A    between atoms: _99  and  _100
REMARK   43  A    between atoms: _99  and  _102
REMARK   44  A    between atoms: _102  and  _103
REMARK   45  A    between atoms: _106  and  _108
REMARK   46  A    between atoms: _108  and  _109
REMARK   47  A    between atoms: _108  and  _111
REMARK   48  A    between atoms: _111  and  _112
REMARK   49  A    between atoms: _117  and  _118
REMARK   50  A    between atoms: _120  and  _122
REMARK   51  A    between atoms: _122  and  _123
REMARK   52  A    between atoms: _126  and  _128
REMARK   53  A    between atoms: _128  and  _129
REMARK   54  A    between atoms: _128  and  _131
REMARK   55  A    between atoms: _131  and  _132
REMARK   56  A    between atoms: _132  and  _133
REMARK   57  A    between atoms: _135  and  _137
REMARK   58  A    between atoms: _137  and  _138
REMARK   59  A    between atoms: _137  and  _140
REMARK   60  A    between atoms: _140  and  _141
REMARK   61  A    between atoms: _141  and  _142
REMARK   62  A    between atoms: _142  and  _143
REMARK   63  A    between atoms: _143  and  _144
REMARK   64  A    between atoms: _148  and  _150
REMARK   65  A    between atoms: _150  and  _151
REMARK   66  A    between atoms: _150  and  _153
REMARK   67  A    between atoms: _153  and  _154
REMARK   68  A    between atoms: _157  and  _159
REMARK   69  A    between atoms: _159  and  _160
REMARK   70  A    between atoms: _159  and  _162
REMARK   71  A    between atoms: _162  and  _163
REMARK   72  A    between atoms: _166  and  _168
REMARK   73  A    between atoms: _168  and  _169
REMARK   74  A    between atoms: _168  and  _171
REMARK   75  A    between atoms: _171  and  _172
REMARK   76  A    between atoms: _175  and  _177
REMARK   77  A    between atoms: _177  and  _178
REMARK   78  A    between atoms: _177  and  _180
REMARK   79  A    between atoms: _180  and  _181
REMARK   80  A    between atoms: _181  and  _182
REMARK   81  A    between atoms: _182  and  _183
REMARK   82  A    between atoms: _183  and  _184
REMARK   83  A    between atoms: _188  and  _190
REMARK   84  A    between atoms: _190  and  _191
REMARK   85  A    between atoms: _190  and  _193
REMARK   86  A    between atoms: _196  and  _198
REMARK   87  A    between atoms: _198  and  _199
REMARK   88  A    between atoms: _198  and  _201
REMARK   89  A    between atoms: _201  and  _202
REMARK   90  A    between atoms: _205  and  _207
REMARK   91  A    between atoms: _207  and  _208
REMARK   92  A    between atoms: _207  and  _210
REMARK   93  A    between atoms: _210  and  _211
REMARK   94  A    between atoms: _211  and  _212
REMARK   95  A    between atoms: _212  and  _213
REMARK   96  A    between atoms: _213  and  _214
REMARK   97  A    between atoms: _218  and  _220
REMARK   98  A    between atoms: _220  and  _221
REMARK   99  A    between atoms: _220  and  _223
REMARK  100  A    between atoms: _223  and  _224
REMARK  101  A    between atoms: _224  and  _225
REMARK  102  A    between atoms: _230  and  _232
REMARK  103  A    between atoms: _232  and  _233
REMARK  104  A    between atoms: _232  and  _235
REMARK  105  A    between atoms: _235  and  _236
REMARK  106  A    between atoms: _239  and  _241
REMARK  107  A    between atoms: _241  and  _242
REMARK  108  A    between atoms: _241  and  _244
REMARK  109  A    between atoms: _244  and  _245
REMARK  110  A    between atoms: _250  and  _252
REMARK  111  A    between atoms: _252  and  _253
REMARK  112  A    between atoms: _252  and  _255
REMARK  113  A    between atoms: _255  and  _256
REMARK  114  A    between atoms: _259  and  _261
REMARK  115  A    between atoms: _261  and  _262
REMARK  116  A    between atoms: _261  and  _264
REMARK  117  A    between atoms: _264  and  _265
REMARK  118  A    between atoms: _268  and  _270
REMARK  119  A    between atoms: _270  and  _271
REMARK  120  A    between atoms: _270  and  _273
REMARK  121  A    between atoms: _273  and  _274
REMARK  122  A    between atoms: _274  and  _275
REMARK  123  A    between atoms: _278  and  _280
REMARK  124  A    between atoms: _280  and  _281
REMARK  125  A    between atoms: _280  and  _283
REMARK  126  A    between atoms: _283  and  _284
REMARK  127  A    between atoms: _284  and  _285
REMARK  128  A    between atoms: _285  and  _286
REMARK  129  A    between atoms: _286  and  _287
REMARK  130  A    between atoms: _291  and  _293
REMARK  131  A    between atoms: _293  and  _294
REMARK  132  A    between atoms: _293  and  _296
REMARK  133  A    between atoms: _296  and  _297
REMARK  134  A    between atoms: _300  and  _302
REMARK  135  A    between atoms: _302  and  _303
REMARK  136  A    between atoms: _302  and  _305
REMARK  137  A    between atoms: _308  and  _310
REMARK  138  A    between atoms: _310  and  _311
REMARK  139  A    between atoms: _310  and  _313
REMARK  140  A    between atoms: _313  and  _314
REMARK  141  A    between atoms: _314  and  _315
REMARK  142  A    between atoms: _315  and  _316
REMARK  143  A    between atoms: _316  and  _317
REMARK  144  A    between atoms: _321  and  _323
REMARK  145  A    between atoms: _323  and  _324
REMARK  146  A    between atoms: _323  and  _326
REMARK  147  A    between atoms: _326  and  _327
REMARK  148  A    between atoms: _330  and  _332
REMARK  149  A    between atoms: _332  and  _333
REMARK  150  A    between atoms: _332  and  _335
REMARK  151  A    between atoms: _335  and  _336
REMARK  152  A    between atoms: _336  and  _337
REMARK  153  A    between atoms: _339  and  _341
REMARK  154  A    between atoms: _341  and  _342
REMARK  155  A    between atoms: _341  and  _344
REMARK  156  A    between atoms: _344  and  _345
REMARK  157  A    between atoms: _345  and  _346
REMARK  158  A    between atoms: _348  and  _350
REMARK  159  A    between atoms: _350  and  _351
REMARK  160  A    between atoms: _350  and  _353
REMARK  161  A    between atoms: _353  and  _354
REMARK  162  A    between atoms: _354  and  _355
REMARK  163  A    between atoms: _358  and  _360
REMARK  164  A    between atoms: _360  and  _361
REMARK  165  A    between atoms: _360  and  _363
REMARK  166  A    between atoms: _363  and  _364
REMARK  167  A    between atoms: _369  and  _370
REMARK  168  A    between atoms: _372  and  _374
REMARK  169  A    between atoms: _374  and  _375
REMARK  170  A    between atoms: _374  and  _377
REMARK  171  A    between atoms: _381  and  _382
REMARK  172  A    between atoms: _387  and  _389
REMARK  173  A    between atoms: _389  and  _390
REMARK  174  A    between atoms: _392  and  _394
REMARK  175  A    between atoms: _394  and  _395
REMARK  176  A    between atoms: _397  and  _399
REMARK  177  A    between atoms: _399  and  _400
REMARK  178  A    between atoms: _399  and  _402
REMARK  179  A    between atoms: _402  and  _403
REMARK  180  A    between atoms: _403  and  _404
REMARK  181  A    between atoms: _407  and  _409
REMARK  182  A    between atoms: _409  and  _410
REMARK  183  A    between atoms: _409  and  _412
REMARK  184  A    between atoms: _412  and  _413
REMARK  185  A    between atoms: _413  and  _414
REMARK  186  A    between atoms: _416  and  _418
REMARK  187  A    between atoms: _418  and  _419
REMARK  188  A    between atoms: _418  and  _421
REMARK  189  A    between atoms: _421  and  _422
REMARK  190  A    between atoms: _428  and  _430
REMARK  191  A    between atoms: _430  and  _431
REMARK  192  A    between atoms: _430  and  _433
REMARK  193  A    between atoms: _433  and  _434
REMARK  194  A    between atoms: _439  and  _440
REMARK  195  A    between atoms: _442  and  _444
REMARK  196  A    between atoms: _444  and  _445
REMARK  197  A    between atoms: _444  and  _447
REMARK  198  A    between atoms: _447  and  _448
REMARK  199  A    between atoms: _451  and  _453
REMARK  200  A    between atoms: _453  and  _454
REMARK  201  A    between atoms: _453  and  _456
REMARK  202  A    between atoms: _456  and  _457
REMARK  203  A    between atoms: _457  and  _458
REMARK  204  A    between atoms: _458  and  _459
REMARK  205  A    between atoms: _459  and  _460
REMARK  206  A    between atoms: _465  and  _466
REMARK  207  A    between atoms: _471  and  _473
REMARK  208  A    between atoms: _473  and  _474
REMARK  209  A    between atoms: _473  and  _476
REMARK  210  A    between atoms: _476  and  _477
REMARK  211  A    between atoms: _477  and  _478
REMARK  212  A    between atoms: _481  and  _483
REMARK  213  A    between atoms: _483  and  _484
REMARK  214  A    between atoms: _483  and  _486
REMARK  215  A    between atoms: _486  and  _487
REMARK  216  A    between atoms: _492  and  _494
REMARK  217  A    between atoms: _494  and  _495
REMARK  218  A    between atoms: _494  and  _497
REMARK  219  A    between atoms: _497  and  _498
REMARK  220  A    between atoms: _501  and  _503
REMARK  221  A    between atoms: _503  and  _504
REMARK  222  A    between atoms: _503  and  _506
REMARK  223  A    between atoms: _506  and  _507
REMARK  224  A    between atoms: _510  and  _512
REMARK  225  A    between atoms: _512  and  _513
REMARK  226  A    between atoms: _512  and  _515
REMARK  227  A    between atoms: _515  and  _516
REMARK  228  A    between atoms: _519  and  _521
REMARK  229  A    between atoms: _521  and  _522
REMARK  230  A    between atoms: _521  and  _524
REMARK  231  A    between atoms: _524  and  _525
REMARK  232  A    between atoms: _525  and  _526
REMARK  233  A    between atoms: _531  and  _533
REMARK  234  A    between atoms: _533  and  _534
REMARK  235  A    between atoms: _533  and  _536
REMARK  236  A    between atoms: _539  and  _541
REMARK  237  A    between atoms: _541  and  _542
REMARK  238  A    between atoms: _541  and  _544
REMARK  239  A    between atoms: _544  and  _545
REMARK  240  A    between atoms: _548  and  _550
REMARK  241  A    between atoms: _550  and  _551
REMARK  242  A    between atoms: _550  and  _553
REMARK  243  A    between atoms: _553  and  _554
REMARK  244  A    between atoms: _557  and  _559
REMARK  245  A    between atoms: _559  and  _560
REMARK  246  A    between atoms: _559  and  _562
REMARK  247  A    between atoms: _562  and  _563
REMARK  248  A    between atoms: _569  and  _571
REMARK  249  A    between atoms: _571  and  _572
REMARK  250  A    between atoms: _574  and  _576
REMARK  251  A    between atoms: _576  and  _577
REMARK  252  A    between atoms: _576  and  _579
REMARK  253  A    between atoms: _579  and  _580
REMARK  254  A    between atoms: _586  and  _588
REMARK  255  A    between atoms: _588  and  _589
REMARK  256  A    between atoms: _592  and  _594
REMARK  257  A    between atoms: _594  and  _595
REMARK  258  A    between atoms: _594  and  _597
REMARK  259  A    between atoms: _599  and  _601
REMARK  260  A    between atoms: _601  and  _602
REMARK  261  A    between atoms: _604  and  _606
REMARK  262  A    between atoms: _606  and  _607
REMARK  263  A    between atoms: _606  and  _609
REMARK  264  A    between atoms: _609  and  _610
REMARK  265  A    between atoms: _616  and  _618
REMARK  266  A    between atoms: _618  and  _619
REMARK  267  A    between atoms: _618  and  _621
REMARK  268  A    between atoms: _621  and  _622
REMARK  269  A    between atoms: _627  and  _628
REMARK                            x       y       z     vdW  Elec       q    Type
REMARK                         _______ _______ _______ _____ _____    ______ ____
ROOT
ATOM      1  CA  LYS A   1      -3.496  14.094  40.201  0.00  0.00    +0.145 C 
ENDROOT
BRANCH   1   2
ATOM      2  C   LYS A   1      -3.237  13.203  38.984  0.00  0.00    +0.238 C 
ATOM      3  N   VAL A   2      -2.093  12.528  38.949  0.00  0.00    -0.298 N 
ATOM      4  H   VAL A   2      -1.416  12.630  39.732  0.00  0.00    +0.150 HD
ATOM      5  O   LYS A   1      -4.087  13.121  38.093  0.00  0.00    -0.274 OA
BRANCH   3   6
ATOM      6  CA  VAL A   2      -1.769  11.645  37.830  0.00  0.00    +0.137 C 
BRANCH   6   7
ATOM      7  CB  VAL A   2      -0.337  11.051  37.966  0.00  0.00    +0.026 C 
ATOM      8  CG2 VAL A   2       0.739  12.110  37.773  0.00  0.00    +0.002 C 
ATOM      9  CG1 VAL A   2      -0.114   9.908  37.010  0.00  0.00    +0.002 C 
ENDBRANCH   6   7
BRANCH   6  10
ATOM     10  C   VAL A   2      -2.815  10.521  37.755  0.00  0.00    +0.227 C 
ATOM     11  O   VAL A   2      -3.356  10.224  36.688  0.00  0.00    -0.286 OA
ENDBRANCH   6  10
ENDBRANCH   3   6
ENDBRANCH   1   2
BRANCH   1  12
ATOM     12  N   LYS A   1      -2.981  13.526  41.438  0.00  0.00    -0.238 NA
ATOM     13  H   LYS A   1      -2.239  14.038  41.956  0.00  0.00    +0.142 HD
ENDBRANCH   1  12
BRANCH   1  14
ATOM     14  CB  LYS A   1      -2.940  15.497  39.940  0.00  0.00    +0.026 C 
BRANCH  14  15
ATOM     15  CG  LYS A   1      -3.230  16.474  41.092  0.00  0.00    -0.000 C 
BRANCH  15  16
ATOM     16  CD  LYS A   1      -2.851  17.876  40.755  0.00  0.00    -0.024 C 
BRANCH  16  17
ATOM     17  CE  LYS A   1      -3.509  18.819  41.747  0.00  0.00    -0.086 C 
BRANCH  17  18
ATOM     18  NZ  LYS A   1      -3.205  20.191  41.386  0.00  0.00    +0.380 N 
ATOM     19  HZ1 LYS A   1      -3.656  20.835  42.066  0.00  0.00    -0.089 HD
ATOM     20  HZ2 LYS A   1      -2.175  20.333  41.403  0.00  0.00    -0.089 HD
ATOM     21  HZ3 LYS A   1      -3.567  20.385  40.430  0.00  0.00    -0.089 HD
ENDBRANCH  17  18
ENDBRANCH  16  17
ENDBRANCH  15  16
ENDBRANCH  14  15
ENDBRANCH   1  14
TORSDOF 10
REMARK  Name = ../refined-set-2016/1xh4/1xh4_pocket.pdb
REMARK  269 active torsions:
REMARK  status: ('A' for Active; 'I' for Inactive)
REMARK    1  A    between atoms: _1  and  _3
REMARK    2  A    between atoms: _3  and  _4
REMARK    3  A    between atoms: _3  and  _6
REMARK    4  A    between atoms: _6  and  _7
REMARK    5  A    between atoms: _10  and  _12
REMARK    6  A    between atoms: _12  and  _13
REMARK    7  A    between atoms: _12  and  _15
REMARK    8  A    between atoms: _15  and  _16
REMARK    9  A    between atoms: _19  and  _21
REMARK   10  A    between atoms: _21  and  _22
REMARK   11  A    between atoms: _24  and  _26
REMARK   12  A    between atoms: _26  and  _27
REMARK   13  A    between atoms: _26  and  _29
REMARK   14  A    between atoms: _29  and  _30
REMARK   15  A    between atoms: _33  and  _35
REMARK   16  A    between atoms: _35  and  _36
REMARK   17  A    between atoms: _38  and  _40
REMARK   18  A    between atoms: _40  and  _41
REMARK   19  A    between atoms: _40  and  _43
REMARK   20  A    between atoms: _43  and  _44
REMARK   21  A    between atoms: _46  and  _48
REMARK   22  A    between atoms: _48  and  _49
REMARK   23  A    between atoms: _48  and  _51
REMARK   24  A    between atoms: _51  and  _52
REMARK   25  A    between atoms: _58  and  _60
REMARK   26  A    between atoms: _60  and  _61
REMARK   27  A    between atoms: _63  and  _65
REMARK   28  A    between atoms: _65  and  _66
REMARK   29  A    between atoms: _65  and  _68
REMARK   30  A    between atoms: _68  and  _69
REMARK   31  A    between atoms: _69  and  _70
REMARK   32  A    between atoms: _70  and  _71
REMARK   33  A    between atoms: _80  and  _82
REMARK   34  A    between atoms: _82  and  _83
REMARK   35  A    between atoms: _82  and  _85
REMARK   36  A    between atoms: _88  and  _90
REMARK   37  A    between atoms: _90  and  _91
REMARK   38  A    between atoms: _90  and  _93
REMARK   39  A    between atoms: _93  and  _94
REMARK   40  A    between atoms: _94  and  _95
REMARK   41  A    between atoms: _97  and  _99
REMARK   42  A    between atoms: _99  and  _100
REMARK   43  A    between atoms: _99  and  _102
REMARK   44  A    between atoms: _102  and  _103
REMARK   45  A    between atoms: _106  and  _108
REMARK   46  A    between atoms: _108  and  _109
REMARK   47  A    between atoms: _108  and  _111
REMARK   48  A    between atoms: _111  and  _112
REMARK   49  A    between atoms: _117  and  _118
REMARK   50  A    between atoms: _120  and  _122
REMARK   51  A    between atoms: _122  and  _123
REMARK   52  A    between atoms: _126  and  _128
REMARK   53  A    between atoms: _128  and  _129
REMARK   54  A    between atoms: _128  and  _131
REMARK   55  A    between atoms: _131  and  _132
REMARK   56  A    between atoms: _132  and  _133
REMARK   57  A    between atoms: _135  and  _137
REMARK   58  A    between atoms: _137  and  _138
REMARK   59  A    between atoms: _137  and  _140
REMARK   60  A    between atoms: _140  and  _141
REMARK   61  A    between atoms: _141  and  _142
REMARK   62  A    between atoms: _142  and  _143
REMARK   63  A    between atoms: _143  and  _144
REMARK   64  A    between atoms: _148  and  _150
REMARK   65  A    between atoms: _150  and  _151
REMARK   66  A    between atoms: _150  and  _153
REMARK   67  A    between atoms: _153  and  _154
REMARK   68  A    between atoms: _157  and  _159
REMARK   69  A    between atoms: _159  and  _160
REMARK   70  A    between atoms: _159  and  _162
REMARK   71  A    between atoms: _162  and  _163
REMARK   72  A    between atoms: _166  and  _168
REMARK   73  A    between atoms: _168  and  _169
REMARK   74  A    between atoms: _168  and  _171
REMARK   75  A    between atoms: _171  and  _172
REMARK   76  A    between atoms: _175  and  _177
REMARK   77  A    between atoms: _177  and  _178
REMARK   78  A    between atoms: _177  and  _180
REMARK   79  A    between atoms: _180  and  _181
REMARK   80  A    between atoms: _181  and  _182
REMARK   81  A    between atoms: _182  and  _183
REMARK   82  A    between atoms: _183  and  _184
REMARK   83  A    between atoms: _188  and  _190
REMARK   84  A    between atoms: _190  and  _191
REMARK   85  A    between atoms: _190  and  _193
REMARK   86  A    between atoms: _196  and  _198
REMARK   87  A    between atoms: _198  and  _199
REMARK   88  A    between atoms: _198  and  _201
REMARK   89  A    between atoms: _201  and  _202
REMARK   90  A    between atoms: _205  and  _207
REMARK   91  A    between atoms: _207  and  _208
REMARK   92  A    between atoms: _207  and  _210
REMARK   93  A    between atoms: _210  and  _211
REMARK   94  A    between atoms: _211  and  _212
REMARK   95  A    between atoms: _212  and  _213
REMARK   96  A    between atoms: _213  and  _214
REMARK   97  A    between atoms: _218  and  _220
REMARK   98  A    between atoms: _220  and  _221
REMARK   99  A    between atoms: _220  and  _223
REMARK  100  A    between atoms: _223  and  _224
REMARK  101  A    between atoms: _224  and  _225
REMARK  102  A    between atoms: _230  and  _232
REMARK  103  A    between atoms: _232  and  _233
REMARK  104  A    between atoms: _232  and  _235
REMARK  105  A    between atoms: _235  and  _236
REMARK  106  A    between atoms: _239  and  _241
REMARK  107  A    between atoms: _241  and  _242
REMARK  108  A    between atoms: _241  and  _244
REMARK  109  A    between atoms: _244  and  _245
REMARK  110  A    between atoms: _250  and  _252
REMARK  111  A    between atoms: _252  and  _253
REMARK  112  A    between atoms: _252  and  _255
REMARK  113  A    between atoms: _255  and  _256
REMARK  114  A    between atoms: _259  and  _261
REMARK  115  A    between atoms: _261  and  _262
REMARK  116  A    between atoms: _261  and  _264
REMARK  117  A    between atoms: _264  and  _265
REMARK  118  A    between atoms: _268  and  _270
REMARK  119  A    between atoms: _270  and  _271
REMARK  120  A    between atoms: _270  and  _273
REMARK  121  A    between atoms: _273  and  _274
REMARK  122  A    between atoms: _274  and  _275
REMARK  123  A    between atoms: _278  and  _280
REMARK  124  A    between atoms: _280  and  _281
REMARK  125  A    between atoms: _280  and  _283
REMARK  126  A    between atoms: _283  and  _284
REMARK  127  A    between atoms: _284  and  _285
REMARK  128  A    between atoms: _285  and  _286
REMARK  129  A    between atoms: _286  and  _287
REMARK  130  A    between atoms: _291  and  _293
REMARK  131  A    between atoms: _293  and  _294
REMARK  132  A    between atoms: _293  and  _296
REMARK  133  A    between atoms: _296  and  _297
REMARK  134  A    between atoms: _300  and  _302
REMARK  135  A    between atoms: _302  and  _303
REMARK  136  A    between atoms: _302  and  _305
REMARK  137  A    between atoms: _308  and  _310
REMARK  138  A    between atoms: _310  and  _311
REMARK  139  A    between atoms: _310  and  _313
REMARK  140  A    between atoms: _313  and  _314
REMARK  141  A    between atoms: _314  and  _315
REMARK  142  A    between atoms: _315  and  _316
REMARK  143  A    between atoms: _316  and  _317
REMARK  144  A    between atoms: _321  and  _323
REMARK  145  A    between atoms: _323  and  _324
REMARK  146  A    between atoms: _323  and  _326
REMARK  147  A    between atoms: _326  and  _327
REMARK  148  A    between atoms: _330  and  _332
REMARK  149  A    between atoms: _332  and  _333
REMARK  150  A    between atoms: _332  and  _335
REMARK  151  A    between atoms: _335  and  _336
REMARK  152  A    between atoms: _336  and  _337
REMARK  153  A    between atoms: _339  and  _341
REMARK  154  A    between atoms: _341  and  _342
REMARK  155  A    between atoms: _341  and  _344
REMARK  156  A    between atoms: _344  and  _345
REMARK  157  A    between atoms: _345  and  _346
REMARK  158  A    between atoms: _348  and  _350
REMARK  159  A    between atoms: _350  and  _351
REMARK  160  A    between atoms: _350  and  _353
REMARK  161  A    between atoms: _353  and  _354
REMARK  162  A    between atoms: _354  and  _355
REMARK  163  A    between atoms: _358  and  _360
REMARK  164  A    between atoms: _360  and  _361
REMARK  165  A    between atoms: _360  and  _363
REMARK  166  A    between atoms: _363  and  _364
REMARK  167  A    between atoms: _369  and  _370
REMARK  168  A    between atoms: _372  and  _374
REMARK  169  A    between atoms: _374  and  _375
REMARK  170  A    between atoms: _374  and  _377
REMARK  171  A    between atoms: _381  and  _382
REMARK  172  A    between atoms: _387  and  _389
REMARK  173  A    between atoms: _389  and  _390
REMARK  174  A    between atoms: _392  and  _394
REMARK  175  A    between atoms: _394  and  _395
REMARK  176  A    between atoms: _397  and  _399
REMARK  177  A    between atoms: _399  and  _400
REMARK  178  A    between atoms: _399  and  _402
REMARK  179  A    between atoms: _402  and  _403
REMARK  180  A    between atoms: _403  and  _404
REMARK  181  A    between atoms: _407  and  _409
REMARK  182  A    between atoms: _409  and  _410
REMARK  183  A    between atoms: _409  and  _412
REMARK  184  A    between atoms: _412  and  _413
REMARK  185  A    between atoms: _413  and  _414
REMARK  186  A    between atoms: _416  and  _418
REMARK  187  A    between atoms: _418  and  _419
REMARK  188  A    between atoms: _418  and  _421
REMARK  189  A    between atoms: _421  and  _422
REMARK  190  A    between atoms: _428  and  _430
REMARK  191  A    between atoms: _430  and  _431
REMARK  192  A    between atoms: _430  and  _433
REMARK  193  A    between atoms: _433  and  _434
REMARK  194  A    between atoms: _439  and  _440
REMARK  195  A    between atoms: _442  and  _444
REMARK  196  A    between atoms: _444  and  _445
REMARK  197  A    between atoms: _444  and  _447
REMARK  198  A    between atoms: _447  and  _448
REMARK  199  A    between atoms: _451  and  _453
REMARK  200  A    between atoms: _453  and  _454
REMARK  201  A    between atoms: _453  and  _456
REMARK  202  A    between atoms: _456  and  _457
REMARK  203  A    between atoms: _457  and  _458
REMARK  204  A    between atoms: _458  and  _459
REMARK  205  A    between atoms: _459  and  _460
REMARK  206  A    between atoms: _465  and  _466
REMARK  207  A    between atoms: _471  and  _473
REMARK  208  A    between atoms: _473  and  _474
REMARK  209  A    between atoms: _473  and  _476
REMARK  210  A    between atoms: _476  and  _477
REMARK  211  A    between atoms: _477  and  _478
REMARK  212  A    between atoms: _481  and  _483
REMARK  213  A    between atoms: _483  and  _484
REMARK  214  A    between atoms: _483  and  _486
REMARK  215  A    between atoms: _486  and  _487
REMARK  216  A    between atoms: _492  and  _494
REMARK  217  A    between atoms: _494  and  _495
REMARK  218  A    between atoms: _494  and  _497
REMARK  219  A    between atoms: _497  and  _498
REMARK  220  A    between atoms: _501  and  _503
REMARK  221  A    between atoms: _503  and  _504
REMARK  222  A    between atoms: _503  and  _506
REMARK  223  A    between atoms: _506  and  _507
REMARK  224  A    between atoms: _510  and  _512
REMARK  225  A    between atoms: _512  and  _513
REMARK  226  A    between atoms: _512  and  _515
REMARK  227  A    between atoms: _515  and  _516
REMARK  228  A    between atoms: _519  and  _521
REMARK  229  A    between atoms: _521  and  _522
REMARK  230  A    between atoms: _521  and  _524
REMARK  231  A    between atoms: _524  and  _525
REMARK  232  A    between atoms: _525  and  _526
REMARK  233  A    between atoms: _531  and  _533
REMARK  234  A    between atoms: _533  and  _534
REMARK  235  A    between atoms: _533  and  _536
REMARK  236  A    between atoms: _539  and  _541
REMARK  237  A    between atoms: _541  and  _542
REMARK  238  A    between atoms: _541  and  _544
REMARK  239  A    between atoms: _544  and  _545
REMARK  240  A    between atoms: _548  and  _550
REMARK  241  A    between atoms: _550  and  _551
REMARK  242  A    between atoms: _550  and  _553
REMARK  243  A    between atoms: _553  and  _554
REMARK  244  A    between atoms: _557  and  _559
REMARK  245  A    between atoms: _559  and  _560
REMARK  246  A    between atoms: _559  and  _562
REMARK  247  A    between atoms: _562  and  _563
REMARK  248  A    between atoms: _569  and  _571
REMARK  249  A    between atoms: _571  and  _572
REMARK  250  A    between atoms: _574  and  _576
REMARK  251  A    between atoms: _576  and  _577
REMARK  252  A    between atoms: _576  and  _579
REMARK  253  A    between atoms: _579  and  _580
REMARK  254  A    between atoms: _586  and  _588
REMARK  255  A    between atoms: _588  and  _589
REMARK  256  A    between atoms: _592  and  _594
REMARK  257  A    between atoms: _594  and  _595
REMARK  258  A    between atoms: _594  and  _597
REMARK  259  A    between atoms: _599  and  _601
REMARK  260  A    between atoms: _601  and  _602
REMARK  261  A    between atoms: _604  and  _606
REMARK  262  A    between atoms: _606  and  _607
REMARK  263  A    between atoms: _606  and  _609
REMARK  264  A    between atoms: _609  and  _610
REMARK  265  A    between atoms: _616  and  _618
REMARK  266  A    between atoms: _618  and  _619
REMARK  267  A    between atoms: _618  and  _621
REMARK  268  A    between atoms: _621  and  _622
REMARK  269  A    between atoms: _627  and  _628
REMARK                            x       y       z     vdW  Elec       q    Type
REMARK                         _______ _______ _______ _____ _____    ______ ____
ROOT
ATOM      1  C   LYS A   2      -4.319   7.841  33.659  0.00  0.00    +0.241 C 
ATOM      2  N   GLN A   3      -3.283   8.546  34.101  0.00  0.00    -0.297 N 
ATOM      3  H   GLN A   3      -3.346   8.976  35.046  0.00  0.00    +0.150 HD
ATOM      4  O   LYS A   2      -4.294   7.244  32.610  0.00  0.00    -0.273 OA
ENDROOT
BRANCH   2   5
ATOM      5  CA  GLN A   3      -2.065   8.748  33.332  0.00  0.00    +0.149 C 
BRANCH   5   6
ATOM      6  C   GLN A   3      -0.847   8.175  33.999  0.00  0.00    +0.241 C 
ATOM      7  N   ILE A   4      -1.014   7.125  34.798  0.00  0.00    -0.298 N 
ATOM      8  H   ILE A   4      -1.957   6.695  34.886  0.00  0.00    +0.150 HD
ATOM      9  O   GLN A   3       0.259   8.661  33.762  0.00  0.00    -0.273 OA
BRANCH   7  10
ATOM     10  CA  ILE A   4       0.105   6.563  35.556  0.00  0.00    +0.137 C 
BRANCH  10  11
ATOM     11  C   ILE A   4       1.139   6.107  34.551  0.00  0.00    +0.227 C 
ATOM     12  O   ILE A   4       2.300   6.429  34.643  0.00  0.00    -0.286 OA
ENDBRANCH  10  11
BRANCH  10  13
ATOM     13  CB  ILE A   4      -0.350   5.360  36.383  0.00  0.00    +0.026 C 
ATOM     14  CG2 ILE A   4       0.814   4.621  36.970  0.00  0.00    +0.002 C 
BRANCH  13  15
ATOM     15  CG1 ILE A   4      -1.297   5.771  37.506  0.00  0.00    +0.002 C 
ATOM     16  CD1 ILE A   4      -2.125   4.584  38.033  0.00  0.00    +0.000 C 
ENDBRANCH  13  15
ENDBRANCH  10  13
ENDBRANCH   7  10
ENDBRANCH   5   6
BRANCH   5  17
ATOM     17  CB  GLN A   3      -1.832  10.236  33.100  0.00  0.00    +0.039 C 
BRANCH  17  18
ATOM     18  CG  GLN A   3      -2.939  10.898  32.326  0.00  0.00    +0.087 C 
BRANCH  18  19
ATOM     19  CD  GLN A   3      -3.075  10.353  30.916  0.00  0.00    +0.219 C 
ATOM     20  NE2 GLN A   3      -4.278   9.832  30.609  0.00  0.00    -0.329 N 
ATOM     21 HE21 GLN A   3      -5.044   9.841  31.313  0.00  0.00    +0.145 HD
ATOM     22 HE22 GLN A   3      -4.442   9.421  29.668  0.00  0.00    +0.145 HD
ATOM     23  OE1 GLN A   3      -2.108  10.377  30.120  0.00  0.00    -0.275 OA
ENDBRANCH  18  19
ENDBRANCH  17  18
ENDBRANCH   5  17
ENDBRANCH   2   5
BRANCH   1  24
ATOM     24  CA  LYS A   2      -5.566   7.796  34.556  0.00  0.00    +0.149 C 
BRANCH  24  26
ATOM     25  C   LEU A   1      -6.227  10.203  34.473  0.00  0.00    +0.238 C 
ATOM     26  N   LYS A   2      -5.932   9.102  35.164  0.00  0.00    -0.297 N 
ATOM     27  H   LYS A   2      -5.960   9.161  36.202  0.00  0.00    +0.150 HD
ATOM     28  O   LEU A   1      -6.273  10.225  33.261  0.00  0.00    -0.274 OA
BRANCH  25  29
ATOM     29  CA  LEU A   1      -6.536  11.493  35.256  0.00  0.00    +0.145 C 
BRANCH  29  30
ATOM     30  N   LEU A   1      -6.397  11.403  36.713  0.00  0.00    -0.238 NA
ATOM     31  H   LEU A   1      -5.474  11.575  37.159  0.00  0.00    +0.142 HD
ENDBRANCH  29  30
BRANCH  29  32
ATOM     32  CB  LEU A   1      -5.711  12.651  34.692  0.00  0.00    +0.026 C 
BRANCH  32  33
ATOM     33  CG  LEU A   1      -6.487  13.933  34.381  0.00  0.00    +0.002 C 
ATOM     34  CD2 LEU A   1      -5.554  15.005  33.720  0.00  0.00    +0.000 C 
ATOM     35  CD1 LEU A   1      -7.785  13.707  33.539  0.00  0.00    +0.000 C 
ENDBRANCH  32  33
ENDBRANCH  29  32
ENDBRANCH  25  29
ENDBRANCH  24  26
BRANCH  24  36
ATOM     36  CB  LYS A   2      -6.759   7.176  33.790  0.00  0.00    +0.029 C 
BRANCH  36  37
ATOM     37  CG  LYS A   2      -8.090   7.115  34.606  0.00  0.00    +0.000 C 
BRANCH  37  38
ATOM     38  CD  LYS A   2      -9.109   6.081  34.022  0.00  0.00    -0.024 C 
BRANCH  38  39
ATOM     39  CE  LYS A   2     -10.458   6.092  34.799  0.00  0.00    -0.086 C 
BRANCH  39  40
ATOM     40  NZ  LYS A   2     -10.412   5.302  36.089  0.00  0.00    +0.380 N 
ATOM     41  HZ1 LYS A   2      -9.686   5.705  36.715  0.00  0.00    -0.089 HD
ATOM     42  HZ2 LYS A   2     -11.340   5.350  36.557  0.00  0.00    -0.089 HD
ATOM     43  HZ3 LYS A   2     -10.179   4.311  35.879  0.00  0.00    -0.089 HD
ENDBRANCH  39  40
ENDBRANCH  38  39
ENDBRANCH  37  38
ENDBRANCH  36  37
ENDBRANCH  24  36
ENDBRANCH   1  24
TORSDOF 20
REMARK  Name = ../refined-set-2016/1xh4/1xh4_pocket.pdb
REMARK  269 active torsions:
REMARK  status: ('A' for Active; 'I' for Inactive)
REMARK    1  A    between atoms: _1  and  _3
REMARK    2  A    between atoms: _3  and  _4
REMARK    3  A    between atoms: _3  and  _6
REMARK    4  A    between atoms: _6  and  _7
REMARK    5  A    between atoms: _10  and  _12
REMARK    6  A    between atoms: _12  and  _13
REMARK    7  A    between atoms: _12  and  _15
REMARK    8  A    between atoms: _15  and  _16
REMARK    9  A    between atoms: _19  and  _21
REMARK   10  A    between atoms: _21  and  _22
REMARK   11  A    between atoms: _24  and  _26
REMARK   12  A    between atoms: _26  and  _27
REMARK   13  A    between atoms: _26  and  _29
REMARK   14  A    between atoms: _29  and  _30
REMARK   15  A    between atoms: _33  and  _35
REMARK   16  A    between atoms: _35  and  _36
REMARK   17  A    between atoms: _38  and  _40
REMARK   18  A    between atoms: _40  and  _41
REMARK   19  A    between atoms: _40  and  _43
REMARK   20  A    between atoms: _43  and  _44
REMARK   21  A    between atoms: _46  and  _48
REMARK   22  A    between atoms: _48  and  _49
REMARK   23  A    between atoms: _48  and  _51
REMARK   24  A    between atoms: _51  and  _52
REMARK   25  A    between atoms: _58  and  _60
REMARK   26  A    between atoms: _60  and  _61
REMARK   27  A    between atoms: _63  and  _65
REMARK   28  A    between atoms: _65  and  _66
REMARK   29  A    between atoms: _65  and  _68
REMARK   30  A    between atoms: _68  and  _69
REMARK   31  A    between atoms: _69  and  _70
REMARK   32  A    between atoms: _70  and  _71
REMARK   33  A    between atoms: _80  and  _82
REMARK   34  A    between atoms: _82  and  _83
REMARK   35  A    between atoms: _82  and  _85
REMARK   36  A    between atoms: _88  and  _90
REMARK   37  A    between atoms: _90  and  _91
REMARK   38  A    between atoms: _90  and  _93
REMARK   39  A    between atoms: _93  and  _94
REMARK   40  A    between atoms: _94  and  _95
REMARK   41  A    between atoms: _97  and  _99
REMARK   42  A    between atoms: _99  and  _100
REMARK   43  A    between atoms: _99  and  _102
REMARK   44  A    between atoms: _102  and  _103
REMARK   45  A    between atoms: _106  and  _108
REMARK   46  A    between atoms: _108  and  _109
REMARK   47  A    between atoms: _108  and  _111
REMARK   48  A    between atoms: _111  and  _112
REMARK   49  A    between atoms: _117  and  _118
REMARK   50  A    between atoms: _120  and  _122
REMARK   51  A    between atoms: _122  and  _123
REMARK   52  A    between atoms: _126  and  _128
REMARK   53  A    between atoms: _128  and  _129
REMARK   54  A    between atoms: _128  and  _131
REMARK   55  A    between atoms: _131  and  _132
REMARK   56  A    between atoms: _132  and  _133
REMARK   57  A    between atoms: _135  and  _137
REMARK   58  A    between atoms: _137  and  _138
REMARK   59  A    between atoms: _137  and  _140
REMARK   60  A    between atoms: _140  and  _141
REMARK   61  A    between atoms: _141  and  _142
REMARK   62  A    between atoms: _142  and  _143
REMARK   63  A    between atoms: _143  and  _144
REMARK   64  A    between atoms: _148  and  _150
REMARK   65  A    between atoms: _150  and  _151
REMARK   66  A    between atoms: _150  and  _153
REMARK   67  A    between atoms: _153  and  _154
REMARK   68  A    between atoms: _157  and  _159
REMARK   69  A    between atoms: _159  and  _160
REMARK   70  A    between atoms: _159  and  _162
REMARK   71  A    between atoms: _162  and  _163
REMARK   72  A    between atoms: _166  and  _168
REMARK   73  A    between atoms: _168  and  _169
REMARK   74  A    between atoms: _168  and  _171
REMARK   75  A    between atoms: _171  and  _172
REMARK   76  A    between atoms: _175  and  _177
REMARK   77  A    between atoms: _177  and  _178
REMARK   78  A    between atoms: _177  and  _180
REMARK   79  A    between atoms: _180  and  _181
REMARK   80  A    between atoms: _181  and  _182
REMARK   81  A    between atoms: _182  and  _183
REMARK   82  A    between atoms: _183  and  _184
REMARK   83  A    between atoms: _188  and  _190
REMARK   84  A    between atoms: _190  and  _191
REMARK   85  A    between atoms: _190  and  _193
REMARK   86  A    between atoms: _196  and  _198
REMARK   87  A    between atoms: _198  and  _199
REMARK   88  A    between atoms: _198  and  _201
REMARK   89  A    between atoms: _201  and  _202
REMARK   90  A    between atoms: _205  and  _207
REMARK   91  A    between atoms: _207  and  _208
REMARK   92  A    between atoms: _207  and  _210
REMARK   93  A    between atoms: _210  and  _211
REMARK   94  A    between atoms: _211  and  _212
REMARK   95  A    between atoms: _212  and  _213
REMARK   96  A    between atoms: _213  and  _214
REMARK   97  A    between atoms: _218  and  _220
REMARK   98  A    between atoms: _220  and  _221
REMARK   99  A    between atoms: _220  and  _223
REMARK  100  A    between atoms: _223  and  _224
REMARK  101  A    between atoms: _224  and  _225
REMARK  102  A    between atoms: _230  and  _232
REMARK  103  A    between atoms: _232  and  _233
REMARK  104  A    between atoms: _232  and  _235
REMARK  105  A    between atoms: _235  and  _236
REMARK  106  A    between atoms: _239  and  _241
REMARK  107  A    between atoms: _241  and  _242
REMARK  108  A    between atoms: _241  and  _244
REMARK  109  A    between atoms: _244  and  _245
REMARK  110  A    between atoms: _250  and  _252
REMARK  111  A    between atoms: _252  and  _253
REMARK  112  A    between atoms: _252  and  _255
REMARK  113  A    between atoms: _255  and  _256
REMARK  114  A    between atoms: _259  and  _261
REMARK  115  A    between atoms: _261  and  _262
REMARK  116  A    between atoms: _261  and  _264
REMARK  117  A    between atoms: _264  and  _265
REMARK  118  A    between atoms: _268  and  _270
REMARK  119  A    between atoms: _270  and  _271
REMARK  120  A    between atoms: _270  and  _273
REMARK  121  A    between atoms: _273  and  _274
REMARK  122  A    between atoms: _274  and  _275
REMARK  123  A    between atoms: _278  and  _280
REMARK  124  A    between atoms: _280  and  _281
REMARK  125  A    between atoms: _280  and  _283
REMARK  126  A    between atoms: _283  and  _284
REMARK  127  A    between atoms: _284  and  _285
REMARK  128  A    between atoms: _285  and  _286
REMARK  129  A    between atoms: _286  and  _287
REMARK  130  A    between atoms: _291  and  _293
REMARK  131  A    between atoms: _293  and  _294
REMARK  132  A    between atoms: _293  and  _296
REMARK  133  A    between atoms: _296  and  _297
REMARK  134  A    between atoms: _300  and  _302
REMARK  135  A    between atoms: _302  and  _303
REMARK  136  A    between atoms: _302  and  _305
REMARK  137  A    between atoms: _308  and  _310
REMARK  138  A    between atoms: _310  and  _311
REMARK  139  A    between atoms: _310  and  _313
REMARK  140  A    between atoms: _313  and  _314
REMARK  141  A    between atoms: _314  and  _315
REMARK  142  A    between atoms: _315  and  _316
REMARK  143  A    between atoms: _316  and  _317
REMARK  144  A    between atoms: _321  and  _323
REMARK  145  A    between atoms: _323  and  _324
REMARK  146  A    between atoms: _323  and  _326
REMARK  147  A    between atoms: _326  and  _327
REMARK  148  A    between atoms: _330  and  _332
REMARK  149  A    between atoms: _332  and  _333
REMARK  150  A    between atoms: _332  and  _335
REMARK  151  A    between atoms: _335  and  _336
REMARK  152  A    between atoms: _336  and  _337
REMARK  153  A    between atoms: _339  and  _341
REMARK  154  A    between atoms: _341  and  _342
REMARK  155  A    between atoms: _341  and  _344
REMARK  156  A    between atoms: _344  and  _345
REMARK  157  A    between atoms: _345  and  _346
REMARK  158  A    between atoms: _348  and  _350
REMARK  159  A    between atoms: _350  and  _351
REMARK  160  A    between atoms: _350  and  _353
REMARK  161  A    between atoms: _353  and  _354
REMARK  162  A    between atoms: _354  and  _355
REMARK  163  A    between atoms: _358  and  _360
REMARK  164  A    between atoms: _360  and  _361
REMARK  165  A    between atoms: _360  and  _363
REMARK  166  A    between atoms: _363  and  _364
REMARK  167  A    between atoms: _369  and  _370
REMARK  168  A    between atoms: _372  and  _374
REMARK  169  A    between atoms: _374  and  _375
REMARK  170  A    between atoms: _374  and  _377
REMARK  171  A    between atoms: _381  and  _382
REMARK  172  A    between atoms: _387  and  _389
REMARK  173  A    between atoms: _389  and  _390
REMARK  174  A    between atoms: _392  and  _394
REMARK  175  A    between atoms: _394  and  _395
REMARK  176  A    between atoms: _397  and  _399
REMARK  177  A    between atoms: _399  and  _400
REMARK  178  A    between atoms: _399  and  _402
REMARK  179  A    between atoms: _402  and  _403
REMARK  180  A    between atoms: _403  and  _404
REMARK  181  A    between atoms: _407  and  _409
REMARK  182  A    between atoms: _409  and  _410
REMARK  183  A    between atoms: _409  and  _412
REMARK  184  A    between atoms: _412  and  _413
REMARK  185  A    between atoms: _413  and  _414
REMARK  186  A    between atoms: _416  and  _418
REMARK  187  A    between atoms: _418  and  _419
REMARK  188  A    between atoms: _418  and  _421
REMARK  189  A    between atoms: _421  and  _422
REMARK  190  A    between atoms: _428  and  _430
REMARK  191  A    between atoms: _430  and  _431
REMARK  192  A    between atoms: _430  and  _433
REMARK  193  A    between atoms: _433  and  _434
REMARK  194  A    between atoms: _439  and  _440
REMARK  195  A    between atoms: _442  and  _444
REMARK  196  A    between atoms: _444  and  _445
REMARK  197  A    between atoms: _444  and  _447
REMARK  198  A    between atoms: _447  and  _448
REMARK  199  A    between atoms: _451  and  _453
REMARK  200  A    between atoms: _453  and  _454
REMARK  201  A    between atoms: _453  and  _456
REMARK  202  A    between atoms: _456  and  _457
REMARK  203  A    between atoms: _457  and  _458
REMARK  204  A    between atoms: _458  and  _459
REMARK  205  A    between atoms: _459  and  _460
REMARK  206  A    between atoms: _465  and  _466
REMARK  207  A    between atoms: _471  and  _473
REMARK  208  A    between atoms: _473  and  _474
REMARK  209  A    between atoms: _473  and  _476
REMARK  210  A    between atoms: _476  and  _477
REMARK  211  A    between atoms: _477  and  _478
REMARK  212  A    between atoms: _481  and  _483
REMARK  213  A    between atoms: _483  and  _484
REMARK  214  A    between atoms: _483  and  _486
REMARK  215  A    between atoms: _486  and  _487
REMARK  216  A    between atoms: _492  and  _494
REMARK  217  A    between atoms: _494  and  _495
REMARK  218  A    between atoms: _494  and  _497
REMARK  219  A    between atoms: _497  and  _498
REMARK  220  A    between atoms: _501  and  _503
REMARK  221  A    between atoms: _503  and  _504
REMARK  222  A    between atoms: _503  and  _506
REMARK  223  A    between atoms: _506  and  _507
REMARK  224  A    between atoms: _510  and  _512
REMARK  225  A    between atoms: _512  and  _513
REMARK  226  A    between atoms: _512  and  _515
REMARK  227  A    between atoms: _515  and  _516
REMARK  228  A    between atoms: _519  and  _521
REMARK  229  A    between atoms: _521  and  _522
REMARK  230  A    between atoms: _521  and  _524
REMARK  231  A    between atoms: _524  and  _525
REMARK  232  A    between atoms: _525  and  _526
REMARK  233  A    between atoms: _531  and  _533
REMARK  234  A    between atoms: _533  and  _534
REMARK  235  A    between atoms: _533  and  _536
REMARK  236  A    between atoms: _539  and  _541
REMARK  237  A    between atoms: _541  and  _542
REMARK  238  A    between atoms: _541  and  _544
REMARK  239  A    between atoms: _544  and  _545
REMARK  240  A    between atoms: _548  and  _550
REMARK  241  A    between atoms: _550  and  _551
REMARK  242  A    between atoms: _550  and  _553
REMARK  243  A    between atoms: _553  and  _554
REMARK  244  A    between atoms: _557  and  _559
REMARK  245  A    between atoms: _559  and  _560
REMARK  246  A    between atoms: _559  and  _562
REMARK  247  A    between atoms: _562  and  _563
REMARK  248  A    between atoms: _569  and  _571
REMARK  249  A    between atoms: _571  and  _572
REMARK  250  A    between atoms: _574  and  _576
REMARK  251  A    between atoms: _576  and  _577
REMARK  252  A    between atoms: _576  and  _579
REMARK  253  A    between atoms: _579  and  _580
REMARK  254  A    between atoms: _586  and  _588
REMARK  255  A    between atoms: _588  and  _589
REMARK  256  A    between atoms: _592  and  _594
REMARK  257  A    between atoms: _594  and  _595
REMARK  258  A    between atoms: _594  and  _597
REMARK  259  A    between atoms: _599  and  _601
REMARK  260  A    between atoms: _601  and  _602
REMARK  261  A    between atoms: _604  and  _606
REMARK  262  A    between atoms: _606  and  _607
REMARK  263  A    between atoms: _606  and  _609
REMARK  264  A    between atoms: _609  and  _610
REMARK  265  A    between atoms: _616  and  _618
REMARK  266  A    between atoms: _618  and  _619
REMARK  267  A    between atoms: _618  and  _621
REMARK  268  A    between atoms: _621  and  _622
REMARK  269  A    between atoms: _627  and  _628
REMARK                            x       y       z     vdW  Elec       q    Type
REMARK                         _______ _______ _______ _____ _____    ______ ____
ROOT
ATOM      1  CA  THR A   2       4.239   9.299  33.353  0.00  0.00    +0.176 C 
ENDROOT
BRANCH   1   3
ATOM      2  C   HIS A   1       3.356   8.399  31.295  0.00  0.00    +0.239 C 
ATOM      3  N   THR A   2       3.142   8.704  32.575  0.00  0.00    -0.295 N 
ATOM      4  H   THR A   2       2.217   8.525  33.015  0.00  0.00    +0.150 HD
ATOM      5  O   HIS A   1       4.414   8.660  30.735  0.00  0.00    -0.274 OA
BRANCH   2   6
ATOM      6  CA  HIS A   1       2.262   7.689  30.497  0.00  0.00    +0.151 C 
BRANCH   6   7
ATOM      7  N   HIS A   1       1.603   6.715  31.367  0.00  0.00    -0.238 NA
ATOM      8  H   HIS A   1       0.627   6.880  31.687  0.00  0.00    +0.142 HD
ENDBRANCH   6   7
BRANCH   6   9
ATOM      9  CB  HIS A   1       1.299   8.724  29.833  0.00  0.00    +0.074 C 
BRANCH   9  10
ATOM     10  CG  HIS A   1       0.458   8.159  28.722  0.00  0.00    +0.082 A 
ATOM     11  ND1 HIS A   1      -0.836   8.572  28.494  0.00  0.00    -0.227 NA
ATOM     12  CE1 HIS A   1      -1.333   7.896  27.465  0.00  0.00    +0.199 A 
ATOM     13  NE2 HIS A   1      -0.411   7.067  27.016  0.00  0.00    -0.221 NA
ATOM     14  CD2 HIS A   1       0.722   7.211  27.782  0.00  0.00    +0.115 A 
ENDBRANCH   9  10
ENDBRANCH   6   9
ENDBRANCH   2   6
ENDBRANCH   1   3
BRANCH   1  15
ATOM     15  C   THR A   2       5.409   8.338  33.563  0.00  0.00    +0.243 C 
ATOM     16  N   LEU A   3       5.153   7.027  33.649  0.00  0.00    -0.298 N 
ATOM     17  H   LEU A   3       4.176   6.682  33.562  0.00  0.00    +0.150 HD
ATOM     18  O   THR A   2       6.556   8.776  33.595  0.00  0.00    -0.273 OA
BRANCH  16  19
ATOM     19  CA  LEU A   3       6.227   6.093  33.862  0.00  0.00    +0.137 C 
BRANCH  19  20
ATOM     20  C   LEU A   3       7.022   5.991  32.571  0.00  0.00    +0.227 C 
ATOM     21  O   LEU A   3       8.250   5.884  32.580  0.00  0.00    -0.286 OA
ENDBRANCH  19  20
BRANCH  19  22
ATOM     22  CB  LEU A   3       5.687   4.732  34.299  0.00  0.00    +0.028 C 
BRANCH  22  23
ATOM     23  CG  LEU A   3       4.970   4.716  35.632  0.00  0.00    +0.002 C 
ATOM     24  CD2 LEU A   3       5.871   5.256  36.725  0.00  0.00    +0.000 C 
ATOM     25  CD1 LEU A   3       4.373   3.271  35.988  0.00  0.00    +0.000 C 
ENDBRANCH  22  23
ENDBRANCH  19  22
ENDBRANCH  16  19
ENDBRANCH   1  15
BRANCH   1  26
ATOM     26  CB  THR A   2       3.792   9.914  34.665  0.00  0.00    +0.137 C 
ATOM     27  CG2 THR A   2       2.876  11.088  34.427  0.00  0.00    +0.034 C 
BRANCH  26  28
ATOM     28  OG1 THR A   2       2.944   9.021  35.373  0.00  0.00    -0.382 OA
ATOM     29  HG1 THR A   2       2.145   8.821  34.824  0.00  0.00    +0.210 HD
ENDBRANCH  26  28
ENDBRANCH   1  26
TORSDOF 12
REMARK  Name = ../refined-set-2016/1xh4/1xh4_pocket.pdb
REMARK  269 active torsions:
REMARK  status: ('A' for Active; 'I' for Inactive)
REMARK    1  A    between atoms: _1  and  _3
REMARK    2  A    between atoms: _3  and  _4
REMARK    3  A    between atoms: _3  and  _6
REMARK    4  A    between atoms: _6  and  _7
REMARK    5  A    between atoms: _10  and  _12
REMARK    6  A    between atoms: _12  and  _13
REMARK    7  A    between atoms: _12  and  _15
REMARK    8  A    between atoms: _15  and  _16
REMARK    9  A    between atoms: _19  and  _21
REMARK   10  A    between atoms: _21  and  _22
REMARK   11  A    between atoms: _24  and  _26
REMARK   12  A    between atoms: _26  and  _27
REMARK   13  A    between atoms: _26  and  _29
REMARK   14  A    between atoms: _29  and  _30
REMARK   15  A    between atoms: _33  and  _35
REMARK   16  A    between atoms: _35  and  _36
REMARK   17  A    between atoms: _38  and  _40
REMARK   18  A    between atoms: _40  and  _41
REMARK   19  A    between atoms: _40  and  _43
REMARK   20  A    between atoms: _43  and  _44
REMARK   21  A    between atoms: _46  and  _48
REMARK   22  A    between atoms: _48  and  _49
REMARK   23  A    between atoms: _48  and  _51
REMARK   24  A    between atoms: _51  and  _52
REMARK   25  A    between atoms: _58  and  _60
REMARK   26  A    between atoms: _60  and  _61
REMARK   27  A    between atoms: _63  and  _65
REMARK   28  A    between atoms: _65  and  _66
REMARK   29  A    between atoms: _65  and  _68
REMARK   30  A    between atoms: _68  and  _69
REMARK   31  A    between atoms: _69  and  _70
REMARK   32  A    between atoms: _70  and  _71
REMARK   33  A    between atoms: _80  and  _82
REMARK   34  A    between atoms: _82  and  _83
REMARK   35  A    between atoms: _82  and  _85
REMARK   36  A    between atoms: _88  and  _90
REMARK   37  A    between atoms: _90  and  _91
REMARK   38  A    between atoms: _90  and  _93
REMARK   39  A    between atoms: _93  and  _94
REMARK   40  A    between atoms: _94  and  _95
REMARK   41  A    between atoms: _97  and  _99
REMARK   42  A    between atoms: _99  and  _100
REMARK   43  A    between atoms: _99  and  _102
REMARK   44  A    between atoms: _102  and  _103
REMARK   45  A    between atoms: _106  and  _108
REMARK   46  A    between atoms: _108  and  _109
REMARK   47  A    between atoms: _108  and  _111
REMARK   48  A    between atoms: _111  and  _112
REMARK   49  A    between atoms: _117  and  _118
REMARK   50  A    between atoms: _120  and  _122
REMARK   51  A    between atoms: _122  and  _123
REMARK   52  A    between atoms: _126  and  _128
REMARK   53  A    between atoms: _128  and  _129
REMARK   54  A    between atoms: _128  and  _131
REMARK   55  A    between atoms: _131  and  _132
REMARK   56  A    between atoms: _132  and  _133
REMARK   57  A    between atoms: _135  and  _137
REMARK   58  A    between atoms: _137  and  _138
REMARK   59  A    between atoms: _137  and  _140
REMARK   60  A    between atoms: _140  and  _141
REMARK   61  A    between atoms: _141  and  _142
REMARK   62  A    between atoms: _142  and  _143
REMARK   63  A    between atoms: _143  and  _144
REMARK   64  A    between atoms: _148  and  _150
REMARK   65  A    between atoms: _150  and  _151
REMARK   66  A    between atoms: _150  and  _153
REMARK   67  A    between atoms: _153  and  _154
REMARK   68  A    between atoms: _157  and  _159
REMARK   69  A    between atoms: _159  and  _160
REMARK   70  A    between atoms: _159  and  _162
REMARK   71  A    between atoms: _162  and  _163
REMARK   72  A    between atoms: _166  and  _168
REMARK   73  A    between atoms: _168  and  _169
REMARK   74  A    between atoms: _168  and  _171
REMARK   75  A    between atoms: _171  and  _172
REMARK   76  A    between atoms: _175  and  _177
REMARK   77  A    between atoms: _177  and  _178
REMARK   78  A    between atoms: _177  and  _180
REMARK   79  A    between atoms: _180  and  _181
REMARK   80  A    between atoms: _181  and  _182
REMARK   81  A    between atoms: _182  and  _183
REMARK   82  A    between atoms: _183  and  _184
REMARK   83  A    between atoms: _188  and  _190
REMARK   84  A    between atoms: _190  and  _191
REMARK   85  A    between atoms: _190  and  _193
REMARK   86  A    between atoms: _196  and  _198
REMARK   87  A    between atoms: _198  and  _199
REMARK   88  A    between atoms: _198  and  _201
REMARK   89  A    between atoms: _201  and  _202
REMARK   90  A    between atoms: _205  and  _207
REMARK   91  A    between atoms: _207  and  _208
REMARK   92  A    between atoms: _207  and  _210
REMARK   93  A    between atoms: _210  and  _211
REMARK   94  A    between atoms: _211  and  _212
REMARK   95  A    between atoms: _212  and  _213
REMARK   96  A    between atoms: _213  and  _214
REMARK   97  A    between atoms: _218  and  _220
REMARK   98  A    between atoms: _220  and  _221
REMARK   99  A    between atoms: _220  and  _223
REMARK  100  A    between atoms: _223  and  _224
REMARK  101  A    between atoms: _224  and  _225
REMARK  102  A    between atoms: _230  and  _232
REMARK  103  A    between atoms: _232  and  _233
REMARK  104  A    between atoms: _232  and  _235
REMARK  105  A    between atoms: _235  and  _236
REMARK  106  A    between atoms: _239  and  _241
REMARK  107  A    between atoms: _241  and  _242
REMARK  108  A    between atoms: _241  and  _244
REMARK  109  A    between atoms: _244  and  _245
REMARK  110  A    between atoms: _250  and  _252
REMARK  111  A    between atoms: _252  and  _253
REMARK  112  A    between atoms: _252  and  _255
REMARK  113  A    between atoms: _255  and  _256
REMARK  114  A    between atoms: _259  and  _261
REMARK  115  A    between atoms: _261  and  _262
REMARK  116  A    between atoms: _261  and  _264
REMARK  117  A    between atoms: _264  and  _265
REMARK  118  A    between atoms: _268  and  _270
REMARK  119  A    between atoms: _270  and  _271
REMARK  120  A    between atoms: _270  and  _273
REMARK  121  A    between atoms: _273  and  _274
REMARK  122  A    between atoms: _274  and  _275
REMARK  123  A    between atoms: _278  and  _280
REMARK  124  A    between atoms: _280  and  _281
REMARK  125  A    between atoms: _280  and  _283
REMARK  126  A    between atoms: _283  and  _284
REMARK  127  A    between atoms: _284  and  _285
REMARK  128  A    between atoms: _285  and  _286
REMARK  129  A    between atoms: _286  and  _287
REMARK  130  A    between atoms: _291  and  _293
REMARK  131  A    between atoms: _293  and  _294
REMARK  132  A    between atoms: _293  and  _296
REMARK  133  A    between atoms: _296  and  _297
REMARK  134  A    between atoms: _300  and  _302
REMARK  135  A    between atoms: _302  and  _303
REMARK  136  A    between atoms: _302  and  _305
REMARK  137  A    between atoms: _308  and  _310
REMARK  138  A    between atoms: _310  and  _311
REMARK  139  A    between atoms: _310  and  _313
REMARK  140  A    between atoms: _313  and  _314
REMARK  141  A    between atoms: _314  and  _315
REMARK  142  A    between atoms: _315  and  _316
REMARK  143  A    between atoms: _316  and  _317
REMARK  144  A    between atoms: _321  and  _323
REMARK  145  A    between atoms: _323  and  _324
REMARK  146  A    between atoms: _323  and  _326
REMARK  147  A    between atoms: _326  and  _327
REMARK  148  A    between atoms: _330  and  _332
REMARK  149  A    between atoms: _332  and  _333
REMARK  150  A    between atoms: _332  and  _335
REMARK  151  A    between atoms: _335  and  _336
REMARK  152  A    between atoms: _336  and  _337
REMARK  153  A    between atoms: _339  and  _341
REMARK  154  A    between atoms: _341  and  _342
REMARK  155  A    between atoms: _341  and  _344
REMARK  156  A    between atoms: _344  and  _345
REMARK  157  A    between atoms: _345  and  _346
REMARK  158  A    between atoms: _348  and  _350
REMARK  159  A    between atoms: _350  and  _351
REMARK  160  A    between atoms: _350  and  _353
REMARK  161  A    between atoms: _353  and  _354
REMARK  162  A    between atoms: _354  and  _355
REMARK  163  A    between atoms: _358  and  _360
REMARK  164  A    between atoms: _360  and  _361
REMARK  165  A    between atoms: _360  and  _363
REMARK  166  A    between atoms: _363  and  _364
REMARK  167  A    between atoms: _369  and  _370
REMARK  168  A    between atoms: _372  and  _374
REMARK  169  A    between atoms: _374  and  _375
REMARK  170  A    between atoms: _374  and  _377
REMARK  171  A    between atoms: _381  and  _382
REMARK  172  A    between atoms: _387  and  _389
REMARK  173  A    between atoms: _389  and  _390
REMARK  174  A    between atoms: _392  and  _394
REMARK  175  A    between atoms: _394  and  _395
REMARK  176  A    between atoms: _397  and  _399
REMARK  177  A    between atoms: _399  and  _400
REMARK  178  A    between atoms: _399  and  _402
REMARK  179  A    between atoms: _402  and  _403
REMARK  180  A    between atoms: _403  and  _404
REMARK  181  A    between atoms: _407  and  _409
REMARK  182  A    between atoms: _409  and  _410
REMARK  183  A    between atoms: _409  and  _412
REMARK  184  A    between atoms: _412  and  _413
REMARK  185  A    between atoms: _413  and  _414
REMARK  186  A    between atoms: _416  and  _418
REMARK  187  A    between atoms: _418  and  _419
REMARK  188  A    between atoms: _418  and  _421
REMARK  189  A    between atoms: _421  and  _422
REMARK  190  A    between atoms: _428  and  _430
REMARK  191  A    between atoms: _430  and  _431
REMARK  192  A    between atoms: _430  and  _433
REMARK  193  A    between atoms: _433  and  _434
REMARK  194  A    between atoms: _439  and  _440
REMARK  195  A    between atoms: _442  and  _444
REMARK  196  A    between atoms: _444  and  _445
REMARK  197  A    between atoms: _444  and  _447
REMARK  198  A    between atoms: _447  and  _448
REMARK  199  A    between atoms: _451  and  _453
REMARK  200  A    between atoms: _453  and  _454
REMARK  201  A    between atoms: _453  and  _456
REMARK  202  A    between atoms: _456  and  _457
REMARK  203  A    between atoms: _457  and  _458
REMARK  204  A    between atoms: _458  and  _459
REMARK  205  A    between atoms: _459  and  _460
REMARK  206  A    between atoms: _465  and  _466
REMARK  207  A    between atoms: _471  and  _473
REMARK  208  A    between atoms: _473  and  _474
REMARK  209  A    between atoms: _473  and  _476
REMARK  210  A    between atoms: _476  and  _477
REMARK  211  A    between atoms: _477  and  _478
REMARK  212  A    between atoms: _481  and  _483
REMARK  213  A    between atoms: _483  and  _484
REMARK  214  A    between atoms: _483  and  _486
REMARK  215  A    between atoms: _486  and  _487
REMARK  216  A    between atoms: _492  and  _494
REMARK  217  A    between atoms: _494  and  _495
REMARK  218  A    between atoms: _494  and  _497
REMARK  219  A    between atoms: _497  and  _498
REMARK  220  A    between atoms: _501  and  _503
REMARK  221  A    between atoms: _503  and  _504
REMARK  222  A    between atoms: _503  and  _506
REMARK  223  A    between atoms: _506  and  _507
REMARK  224  A    between atoms: _510  and  _512
REMARK  225  A    between atoms: _512  and  _513
REMARK  226  A    between atoms: _512  and  _515
REMARK  227  A    between atoms: _515  and  _516
REMARK  228  A    between atoms: _519  and  _521
REMARK  229  A    between atoms: _521  and  _522
REMARK  230  A    between atoms: _521  and  _524
REMARK  231  A    between atoms: _524  and  _525
REMARK  232  A    between atoms: _525  and  _526
REMARK  233  A    between atoms: _531  and  _533
REMARK  234  A    between atoms: _533  and  _534
REMARK  235  A    between atoms: _533  and  _536
REMARK  236  A    between atoms: _539  and  _541
REMARK  237  A    between atoms: _541  and  _542
REMARK  238  A    between atoms: _541  and  _544
REMARK  239  A    between atoms: _544  and  _545
REMARK  240  A    between atoms: _548  and  _550
REMARK  241  A    between atoms: _550  and  _551
REMARK  242  A    between atoms: _550  and  _553
REMARK  243  A    between atoms: _553  and  _554
REMARK  244  A    between atoms: _557  and  _559
REMARK  245  A    between atoms: _559  and  _560
REMARK  246  A    between atoms: _559  and  _562
REMARK  247  A    between atoms: _562  and  _563
REMARK  248  A    between atoms: _569  and  _571
REMARK  249  A    between atoms: _571  and  _572
REMARK  250  A    between atoms: _574  and  _576
REMARK  251  A    between atoms: _576  and  _577
REMARK  252  A    between atoms: _576  and  _579
REMARK  253  A    between atoms: _579  and  _580
REMARK  254  A    between atoms: _586  and  _588
REMARK  255  A    between atoms: _588  and  _589
REMARK  256  A    between atoms: _592  and  _594
REMARK  257  A    between atoms: _594  and  _595
REMARK  258  A    between atoms: _594  and  _597
REMARK  259  A    between atoms: _599  and  _601
REMARK  260  A    between atoms: _601  and  _602
REMARK  261  A    between atoms: _604  and  _606
REMARK  262  A    between atoms: _606  and  _607
REMARK  263  A    between atoms: _606  and  _609
REMARK  264  A    between atoms: _609  and  _610
REMARK  265  A    between atoms: _616  and  _618
REMARK  266  A    between atoms: _618  and  _619
REMARK  267  A    between atoms: _618  and  _621
REMARK  268  A    between atoms: _621  and  _622
REMARK  269  A    between atoms: _627  and  _628
REMARK                            x       y       z     vdW  Elec       q    Type
REMARK                         _______ _______ _______ _____ _____    ______ ____
ROOT
ATOM      1  C   GLU A   1       9.385   9.465  31.052  0.00  0.00    +0.238 C 
ATOM      2  N   LYS A   2       9.379   9.059  32.312  0.00  0.00    -0.298 N 
ATOM      3  H   LYS A   2       8.474   8.803  32.755  0.00  0.00    +0.150 HD
ATOM      4  O   GLU A   1      10.397   9.705  30.453  0.00  0.00    -0.274 OA
ENDROOT
BRANCH   1   5
ATOM      5  CA  GLU A   1       8.043   9.601  30.333  0.00  0.00    +0.145 C 
BRANCH   5   6
ATOM      6  N   GLU A   1       7.316   8.342  30.449  0.00  0.00    -0.238 NA
ATOM      7  H   GLU A   1       6.354   8.359  30.845  0.00  0.00    +0.142 HD
ENDBRANCH   5   6
BRANCH   5   8
ATOM      8  CB  GLU A   1       7.259  10.802  30.902  0.00  0.00    +0.038 C 
BRANCH   8   9
ATOM      9  CG  GLU A   1       8.059  12.102  30.867  0.00  0.00    +0.116 C 
BRANCH   9  10
ATOM     10  CD  GLU A   1       7.360  13.291  31.526  0.00  0.00    +0.365 C 
ATOM     11  OE2 GLU A   1       6.198  13.121  31.933  0.00  0.00    -0.246 OA
ATOM     12  OE1 GLU A   1       7.982  14.400  31.626  0.00  0.00    -0.246 OA
ENDBRANCH   9  10
ENDBRANCH   8   9
ENDBRANCH   5   8
ENDBRANCH   1   5
BRANCH   2  13
ATOM     13  CA  LYS A   2      10.621   8.959  33.109  0.00  0.00    +0.137 C 
BRANCH  13  14
ATOM     14  C   LYS A   2      11.554   7.824  32.650  0.00  0.00    +0.227 C 
ATOM     15  O   LYS A   2      12.749   8.009  32.642  0.00  0.00    -0.286 OA
ENDBRANCH  13  14
BRANCH  13  16
ATOM     16  CB  LYS A   2      10.312   8.780  34.594  0.00  0.00    +0.028 C 
BRANCH  16  17
ATOM     17  CG  LYS A   2      11.570   8.632  35.465  0.00  0.00    -0.000 C 
BRANCH  17  18
ATOM     18  CD  LYS A   2      11.911   7.171  35.720  0.00  0.00    -0.024 C 
BRANCH  18  19
ATOM     19  CE  LYS A   2      12.984   7.045  36.795  0.00  0.00    -0.086 C 
BRANCH  19  20
ATOM     20  NZ  LYS A   2      13.189   5.648  37.263  0.00  0.00    +0.380 N 
ATOM     21  HZ1 LYS A   2      13.931   5.633  37.992  0.00  0.00    -0.089 HD
ATOM     22  HZ2 LYS A   2      12.301   5.284  37.663  0.00  0.00    -0.089 HD
ATOM     23  HZ3 LYS A   2      13.479   5.054  36.460  0.00  0.00    -0.089 HD
ENDBRANCH  19  20
ENDBRANCH  18  19
ENDBRANCH  17  18
ENDBRANCH  16  17
ENDBRANCH  13  16
ENDBRANCH   2  13
TORSDOF 12
REMARK  Name = ../refined-set-2016/1xh4/1xh4_pocket.pdb
REMARK  269 active torsions:
REMARK  status: ('A' for Active; 'I' for Inactive)
REMARK    1  A    between atoms: _1  and  _3
REMARK    2  A    between atoms: _3  and  _4
REMARK    3  A    between atoms: _3  and  _6
REMARK    4  A    between atoms: _6  and  _7
REMARK    5  A    between atoms: _10  and  _12
REMARK    6  A    between atoms: _12  and  _13
REMARK    7  A    between atoms: _12  and  _15
REMARK    8  A    between atoms: _15  and  _16
REMARK    9  A    between atoms: _19  and  _21
REMARK   10  A    between atoms: _21  and  _22
REMARK   11  A    between atoms: _24  and  _26
REMARK   12  A    between atoms: _26  and  _27
REMARK   13  A    between atoms: _26  and  _29
REMARK   14  A    between atoms: _29  and  _30
REMARK   15  A    between atoms: _33  and  _35
REMARK   16  A    between atoms: _35  and  _36
REMARK   17  A    between atoms: _38  and  _40
REMARK   18  A    between atoms: _40  and  _41
REMARK   19  A    between atoms: _40  and  _43
REMARK   20  A    between atoms: _43  and  _44
REMARK   21  A    between atoms: _46  and  _48
REMARK   22  A    between atoms: _48  and  _49
REMARK   23  A    between atoms: _48  and  _51
REMARK   24  A    between atoms: _51  and  _52
REMARK   25  A    between atoms: _58  and  _60
REMARK   26  A    between atoms: _60  and  _61
REMARK   27  A    between atoms: _63  and  _65
REMARK   28  A    between atoms: _65  and  _66
REMARK   29  A    between atoms: _65  and  _68
REMARK   30  A    between atoms: _68  and  _69
REMARK   31  A    between atoms: _69  and  _70
REMARK   32  A    between atoms: _70  and  _71
REMARK   33  A    between atoms: _80  and  _82
REMARK   34  A    between atoms: _82  and  _83
REMARK   35  A    between atoms: _82  and  _85
REMARK   36  A    between atoms: _88  and  _90
REMARK   37  A    between atoms: _90  and  _91
REMARK   38  A    between atoms: _90  and  _93
REMARK   39  A    between atoms: _93  and  _94
REMARK   40  A    between atoms: _94  and  _95
REMARK   41  A    between atoms: _97  and  _99
REMARK   42  A    between atoms: _99  and  _100
REMARK   43  A    between atoms: _99  and  _102
REMARK   44  A    between atoms: _102  and  _103
REMARK   45  A    between atoms: _106  and  _108
REMARK   46  A    between atoms: _108  and  _109
REMARK   47  A    between atoms: _108  and  _111
REMARK   48  A    between atoms: _111  and  _112
REMARK   49  A    between atoms: _117  and  _118
REMARK   50  A    between atoms: _120  and  _122
REMARK   51  A    between atoms: _122  and  _123
REMARK   52  A    between atoms: _126  and  _128
REMARK   53  A    between atoms: _128  and  _129
REMARK   54  A    between atoms: _128  and  _131
REMARK   55  A    between atoms: _131  and  _132
REMARK   56  A    between atoms: _132  and  _133
REMARK   57  A    between atoms: _135  and  _137
REMARK   58  A    between atoms: _137  and  _138
REMARK   59  A    between atoms: _137  and  _140
REMARK   60  A    between atoms: _140  and  _141
REMARK   61  A    between atoms: _141  and  _142
REMARK   62  A    between atoms: _142  and  _143
REMARK   63  A    between atoms: _143  and  _144
REMARK   64  A    between atoms: _148  and  _150
REMARK   65  A    between atoms: _150  and  _151
REMARK   66  A    between atoms: _150  and  _153
REMARK   67  A    between atoms: _153  and  _154
REMARK   68  A    between atoms: _157  and  _159
REMARK   69  A    between atoms: _159  and  _160
REMARK   70  A    between atoms: _159  and  _162
REMARK   71  A    between atoms: _162  and  _163
REMARK   72  A    between atoms: _166  and  _168
REMARK   73  A    between atoms: _168  and  _169
REMARK   74  A    between atoms: _168  and  _171
REMARK   75  A    between atoms: _171  and  _172
REMARK   76  A    between atoms: _175  and  _177
REMARK   77  A    between atoms: _177  and  _178
REMARK   78  A    between atoms: _177  and  _180
REMARK   79  A    between atoms: _180  and  _181
REMARK   80  A    between atoms: _181  and  _182
REMARK   81  A    between atoms: _182  and  _183
REMARK   82  A    between atoms: _183  and  _184
REMARK   83  A    between atoms: _188  and  _190
REMARK   84  A    between atoms: _190  and  _191
REMARK   85  A    between atoms: _190  and  _193
REMARK   86  A    between atoms: _196  and  _198
REMARK   87  A    between atoms: _198  and  _199
REMARK   88  A    between atoms: _198  and  _201
REMARK   89  A    between atoms: _201  and  _202
REMARK   90  A    between atoms: _205  and  _207
REMARK   91  A    between atoms: _207  and  _208
REMARK   92  A    between atoms: _207  and  _210
REMARK   93  A    between atoms: _210  and  _211
REMARK   94  A    between atoms: _211  and  _212
REMARK   95  A    between atoms: _212  and  _213
REMARK   96  A    between atoms: _213  and  _214
REMARK   97  A    between atoms: _218  and  _220
REMARK   98  A    between atoms: _220  and  _221
REMARK   99  A    between atoms: _220  and  _223
REMARK  100  A    between atoms: _223  and  _224
REMARK  101  A    between atoms: _224  and  _225
REMARK  102  A    between atoms: _230  and  _232
REMARK  103  A    between atoms: _232  and  _233
REMARK  104  A    between atoms: _232  and  _235
REMARK  105  A    between atoms: _235  and  _236
REMARK  106  A    between atoms: _239  and  _241
REMARK  107  A    between atoms: _241  and  _242
REMARK  108  A    between atoms: _241  and  _244
REMARK  109  A    between atoms: _244  and  _245
REMARK  110  A    between atoms: _250  and  _252
REMARK  111  A    between atoms: _252  and  _253
REMARK  112  A    between atoms: _252  and  _255
REMARK  113  A    between atoms: _255  and  _256
REMARK  114  A    between atoms: _259  and  _261
REMARK  115  A    between atoms: _261  and  _262
REMARK  116  A    between atoms: _261  and  _264
REMARK  117  A    between atoms: _264  and  _265
REMARK  118  A    between atoms: _268  and  _270
REMARK  119  A    between atoms: _270  and  _271
REMARK  120  A    between atoms: _270  and  _273
REMARK  121  A    between atoms: _273  and  _274
REMARK  122  A    between atoms: _274  and  _275
REMARK  123  A    between atoms: _278  and  _280
REMARK  124  A    between atoms: _280  and  _281
REMARK  125  A    between atoms: _280  and  _283
REMARK  126  A    between atoms: _283  and  _284
REMARK  127  A    between atoms: _284  and  _285
REMARK  128  A    between atoms: _285  and  _286
REMARK  129  A    between atoms: _286  and  _287
REMARK  130  A    between atoms: _291  and  _293
REMARK  131  A    between atoms: _293  and  _294
REMARK  132  A    between atoms: _293  and  _296
REMARK  133  A    between atoms: _296  and  _297
REMARK  134  A    between atoms: _300  and  _302
REMARK  135  A    between atoms: _302  and  _303
REMARK  136  A    between atoms: _302  and  _305
REMARK  137  A    between atoms: _308  and  _310
REMARK  138  A    between atoms: _310  and  _311
REMARK  139  A    between atoms: _310  and  _313
REMARK  140  A    between atoms: _313  and  _314
REMARK  141  A    between atoms: _314  and  _315
REMARK  142  A    between atoms: _315  and  _316
REMARK  143  A    between atoms: _316  and  _317
REMARK  144  A    between atoms: _321  and  _323
REMARK  145  A    between atoms: _323  and  _324
REMARK  146  A    between atoms: _323  and  _326
REMARK  147  A    between atoms: _326  and  _327
REMARK  148  A    between atoms: _330  and  _332
REMARK  149  A    between atoms: _332  and  _333
REMARK  150  A    between atoms: _332  and  _335
REMARK  151  A    between atoms: _335  and  _336
REMARK  152  A    between atoms: _336  and  _337
REMARK  153  A    between atoms: _339  and  _341
REMARK  154  A    between atoms: _341  and  _342
REMARK  155  A    between atoms: _341  and  _344
REMARK  156  A    between atoms: _344  and  _345
REMARK  157  A    between atoms: _345  and  _346
REMARK  158  A    between atoms: _348  and  _350
REMARK  159  A    between atoms: _350  and  _351
REMARK  160  A    between atoms: _350  and  _353
REMARK  161  A    between atoms: _353  and  _354
REMARK  162  A    between atoms: _354  and  _355
REMARK  163  A    between atoms: _358  and  _360
REMARK  164  A    between atoms: _360  and  _361
REMARK  165  A    between atoms: _360  and  _363
REMARK  166  A    between atoms: _363  and  _364
REMARK  167  A    between atoms: _369  and  _370
REMARK  168  A    between atoms: _372  and  _374
REMARK  169  A    between atoms: _374  and  _375
REMARK  170  A    between atoms: _374  and  _377
REMARK  171  A    between atoms: _381  and  _382
REMARK  172  A    between atoms: _387  and  _389
REMARK  173  A    between atoms: _389  and  _390
REMARK  174  A    between atoms: _392  and  _394
REMARK  175  A    between atoms: _394  and  _395
REMARK  176  A    between atoms: _397  and  _399
REMARK  177  A    between atoms: _399  and  _400
REMARK  178  A    between atoms: _399  and  _402
REMARK  179  A    between atoms: _402  and  _403
REMARK  180  A    between atoms: _403  and  _404
REMARK  181  A    between atoms: _407  and  _409
REMARK  182  A    between atoms: _409  and  _410
REMARK  183  A    between atoms: _409  and  _412
REMARK  184  A    between atoms: _412  and  _413
REMARK  185  A    between atoms: _413  and  _414
REMARK  186  A    between atoms: _416  and  _418
REMARK  187  A    between atoms: _418  and  _419
REMARK  188  A    between atoms: _418  and  _421
REMARK  189  A    between atoms: _421  and  _422
REMARK  190  A    between atoms: _428  and  _430
REMARK  191  A    between atoms: _430  and  _431
REMARK  192  A    between atoms: _430  and  _433
REMARK  193  A    between atoms: _433  and  _434
REMARK  194  A    between atoms: _439  and  _440
REMARK  195  A    between atoms: _442  and  _444
REMARK  196  A    between atoms: _444  and  _445
REMARK  197  A    between atoms: _444  and  _447
REMARK  198  A    between atoms: _447  and  _448
REMARK  199  A    between atoms: _451  and  _453
REMARK  200  A    between atoms: _453  and  _454
REMARK  201  A    between atoms: _453  and  _456
REMARK  202  A    between atoms: _456  and  _457
REMARK  203  A    between atoms: _457  and  _458
REMARK  204  A    between atoms: _458  and  _459
REMARK  205  A    between atoms: _459  and  _460
REMARK  206  A    between atoms: _465  and  _466
REMARK  207  A    between atoms: _471  and  _473
REMARK  208  A    between atoms: _473  and  _474
REMARK  209  A    between atoms: _473  and  _476
REMARK  210  A    between atoms: _476  and  _477
REMARK  211  A    between atoms: _477  and  _478
REMARK  212  A    between atoms: _481  and  _483
REMARK  213  A    between atoms: _483  and  _484
REMARK  214  A    between atoms: _483  and  _486
REMARK  215  A    between atoms: _486  and  _487
REMARK  216  A    between atoms: _492  and  _494
REMARK  217  A    between atoms: _494  and  _495
REMARK  218  A    between atoms: _494  and  _497
REMARK  219  A    between atoms: _497  and  _498
REMARK  220  A    between atoms: _501  and  _503
REMARK  221  A    between atoms: _503  and  _504
REMARK  222  A    between atoms: _503  and  _506
REMARK  223  A    between atoms: _506  and  _507
REMARK  224  A    between atoms: _510  and  _512
REMARK  225  A    between atoms: _512  and  _513
REMARK  226  A    between atoms: _512  and  _515
REMARK  227  A    between atoms: _515  and  _516
REMARK  228  A    between atoms: _519  and  _521
REMARK  229  A    between atoms: _521  and  _522
REMARK  230  A    between atoms: _521  and  _524
REMARK  231  A    between atoms: _524  and  _525
REMARK  232  A    between atoms: _525  and  _526
REMARK  233  A    between atoms: _531  and  _533
REMARK  234  A    between atoms: _533  and  _534
REMARK  235  A    between atoms: _533  and  _536
REMARK  236  A    between atoms: _539  and  _541
REMARK  237  A    between atoms: _541  and  _542
REMARK  238  A    between atoms: _541  and  _544
REMARK  239  A    between atoms: _544  and  _545
REMARK  240  A    between atoms: _548  and  _550
REMARK  241  A    between atoms: _550  and  _551
REMARK  242  A    between atoms: _550  and  _553
REMARK  243  A    between atoms: _553  and  _554
REMARK  244  A    between atoms: _557  and  _559
REMARK  245  A    between atoms: _559  and  _560
REMARK  246  A    between atoms: _559  and  _562
REMARK  247  A    between atoms: _562  and  _563
REMARK  248  A    between atoms: _569  and  _571
REMARK  249  A    between atoms: _571  and  _572
REMARK  250  A    between atoms: _574  and  _576
REMARK  251  A    between atoms: _576  and  _577
REMARK  252  A    between atoms: _576  and  _579
REMARK  253  A    between atoms: _579  and  _580
REMARK  254  A    between atoms: _586  and  _588
REMARK  255  A    between atoms: _588  and  _589
REMARK  256  A    between atoms: _592  and  _594
REMARK  257  A    between atoms: _594  and  _595
REMARK  258  A    between atoms: _594  and  _597
REMARK  259  A    between atoms: _599  and  _601
REMARK  260  A    between atoms: _601  and  _602
REMARK  261  A    between atoms: _604  and  _606
REMARK  262  A    between atoms: _606  and  _607
REMARK  263  A    between atoms: _606  and  _609
REMARK  264  A    between atoms: _609  and  _610
REMARK  265  A    between atoms: _616  and  _618
REMARK  266  A    between atoms: _618  and  _619
REMARK  267  A    between atoms: _618  and  _621
REMARK  268  A    between atoms: _621  and  _622
REMARK  269  A    between atoms: _627  and  _628
REMARK                            x       y       z     vdW  Elec       q    Type
REMARK                         _______ _______ _______ _____ _____    ______ ____
ROOT
ATOM      1  CA  LEU A   1      13.932  10.167  29.441  0.00  0.00    +0.133 C 
ENDROOT
BRANCH   1   2
ATOM      2  N   LEU A   1      13.053   9.021  29.246  0.00  0.00    -0.239 NA
ATOM      3  H   LEU A   1      12.103   9.015  29.670  0.00  0.00    +0.142 HD
ENDBRANCH   1   2
BRANCH   1   4
ATOM      4  C   LEU A   1      15.266   9.731  30.060  0.00  0.00    +0.224 C 
ATOM      5  O   LEU A   1      16.302  10.125  29.549  0.00  0.00    -0.287 OA
ENDBRANCH   1   4
BRANCH   1   6
ATOM      6  CB  LEU A   1      13.283  11.299  30.274  0.00  0.00    +0.025 C 
BRANCH   6   7
ATOM      7  CG  LEU A   1      13.410  12.772  29.807  0.00  0.00    +0.002 C 
ATOM      8  CD2 LEU A   1      13.446  13.754  30.986  0.00  0.00    +0.000 C 
ATOM      9  CD1 LEU A   1      14.611  13.063  28.912  0.00  0.00    +0.000 C 
ENDBRANCH   6   7
ENDBRANCH   1   6
TORSDOF 4
REMARK  Name = ../refined-set-2016/1xh4/1xh4_pocket.pdb
REMARK  269 active torsions:
REMARK  status: ('A' for Active; 'I' for Inactive)
REMARK    1  A    between atoms: _1  and  _3
REMARK    2  A    between atoms: _3  and  _4
REMARK    3  A    between atoms: _3  and  _6
REMARK    4  A    between atoms: _6  and  _7
REMARK    5  A    between atoms: _10  and  _12
REMARK    6  A    between atoms: _12  and  _13
REMARK    7  A    between atoms: _12  and  _15
REMARK    8  A    between atoms: _15  and  _16
REMARK    9  A    between atoms: _19  and  _21
REMARK   10  A    between atoms: _21  and  _22
REMARK   11  A    between atoms: _24  and  _26
REMARK   12  A    between atoms: _26  and  _27
REMARK   13  A    between atoms: _26  and  _29
REMARK   14  A    between atoms: _29  and  _30
REMARK   15  A    between atoms: _33  and  _35
REMARK   16  A    between atoms: _35  and  _36
REMARK   17  A    between atoms: _38  and  _40
REMARK   18  A    between atoms: _40  and  _41
REMARK   19  A    between atoms: _40  and  _43
REMARK   20  A    between atoms: _43  and  _44
REMARK   21  A    between atoms: _46  and  _48
REMARK   22  A    between atoms: _48  and  _49
REMARK   23  A    between atoms: _48  and  _51
REMARK   24  A    between atoms: _51  and  _52
REMARK   25  A    between atoms: _58  and  _60
REMARK   26  A    between atoms: _60  and  _61
REMARK   27  A    between atoms: _63  and  _65
REMARK   28  A    between atoms: _65  and  _66
REMARK   29  A    between atoms: _65  and  _68
REMARK   30  A    between atoms: _68  and  _69
REMARK   31  A    between atoms: _69  and  _70
REMARK   32  A    between atoms: _70  and  _71
REMARK   33  A    between atoms: _80  and  _82
REMARK   34  A    between atoms: _82  and  _83
REMARK   35  A    between atoms: _82  and  _85
REMARK   36  A    between atoms: _88  and  _90
REMARK   37  A    between atoms: _90  and  _91
REMARK   38  A    between atoms: _90  and  _93
REMARK   39  A    between atoms: _93  and  _94
REMARK   40  A    between atoms: _94  and  _95
REMARK   41  A    between atoms: _97  and  _99
REMARK   42  A    between atoms: _99  and  _100
REMARK   43  A    between atoms: _99  and  _102
REMARK   44  A    between atoms: _102  and  _103
REMARK   45  A    between atoms: _106  and  _108
REMARK   46  A    between atoms: _108  and  _109
REMARK   47  A    between atoms: _108  and  _111
REMARK   48  A    between atoms: _111  and  _112
REMARK   49  A    between atoms: _117  and  _118
REMARK   50  A    between atoms: _120  and  _122
REMARK   51  A    between atoms: _122  and  _123
REMARK   52  A    between atoms: _126  and  _128
REMARK   53  A    between atoms: _128  and  _129
REMARK   54  A    between atoms: _128  and  _131
REMARK   55  A    between atoms: _131  and  _132
REMARK   56  A    between atoms: _132  and  _133
REMARK   57  A    between atoms: _135  and  _137
REMARK   58  A    between atoms: _137  and  _138
REMARK   59  A    between atoms: _137  and  _140
REMARK   60  A    between atoms: _140  and  _141
REMARK   61  A    between atoms: _141  and  _142
REMARK   62  A    between atoms: _142  and  _143
REMARK   63  A    between atoms: _143  and  _144
REMARK   64  A    between atoms: _148  and  _150
REMARK   65  A    between atoms: _150  and  _151
REMARK   66  A    between atoms: _150  and  _153
REMARK   67  A    between atoms: _153  and  _154
REMARK   68  A    between atoms: _157  and  _159
REMARK   69  A    between atoms: _159  and  _160
REMARK   70  A    between atoms: _159  and  _162
REMARK   71  A    between atoms: _162  and  _163
REMARK   72  A    between atoms: _166  and  _168
REMARK   73  A    between atoms: _168  and  _169
REMARK   74  A    between atoms: _168  and  _171
REMARK   75  A    between atoms: _171  and  _172
REMARK   76  A    between atoms: _175  and  _177
REMARK   77  A    between atoms: _177  and  _178
REMARK   78  A    between atoms: _177  and  _180
REMARK   79  A    between atoms: _180  and  _181
REMARK   80  A    between atoms: _181  and  _182
REMARK   81  A    between atoms: _182  and  _183
REMARK   82  A    between atoms: _183  and  _184
REMARK   83  A    between atoms: _188  and  _190
REMARK   84  A    between atoms: _190  and  _191
REMARK   85  A    between atoms: _190  and  _193
REMARK   86  A    between atoms: _196  and  _198
REMARK   87  A    between atoms: _198  and  _199
REMARK   88  A    between atoms: _198  and  _201
REMARK   89  A    between atoms: _201  and  _202
REMARK   90  A    between atoms: _205  and  _207
REMARK   91  A    between atoms: _207  and  _208
REMARK   92  A    between atoms: _207  and  _210
REMARK   93  A    between atoms: _210  and  _211
REMARK   94  A    between atoms: _211  and  _212
REMARK   95  A    between atoms: _212  and  _213
REMARK   96  A    between atoms: _213  and  _214
REMARK   97  A    between atoms: _218  and  _220
REMARK   98  A    between atoms: _220  and  _221
REMARK   99  A    between atoms: _220  and  _223
REMARK  100  A    between atoms: _223  and  _224
REMARK  101  A    between atoms: _224  and  _225
REMARK  102  A    between atoms: _230  and  _232
REMARK  103  A    between atoms: _232  and  _233
REMARK  104  A    between atoms: _232  and  _235
REMARK  105  A    between atoms: _235  and  _236
REMARK  106  A    between atoms: _239  and  _241
REMARK  107  A    between atoms: _241  and  _242
REMARK  108  A    between atoms: _241  and  _244
REMARK  109  A    between atoms: _244  and  _245
REMARK  110  A    between atoms: _250  and  _252
REMARK  111  A    between atoms: _252  and  _253
REMARK  112  A    between atoms: _252  and  _255
REMARK  113  A    between atoms: _255  and  _256
REMARK  114  A    between atoms: _259  and  _261
REMARK  115  A    between atoms: _261  and  _262
REMARK  116  A    between atoms: _261  and  _264
REMARK  117  A    between atoms: _264  and  _265
REMARK  118  A    between atoms: _268  and  _270
REMARK  119  A    between atoms: _270  and  _271
REMARK  120  A    between atoms: _270  and  _273
REMARK  121  A    between atoms: _273  and  _274
REMARK  122  A    between atoms: _274  and  _275
REMARK  123  A    between atoms: _278  and  _280
REMARK  124  A    between atoms: _280  and  _281
REMARK  125  A    between atoms: _280  and  _283
REMARK  126  A    between atoms: _283  and  _284
REMARK  127  A    between atoms: _284  and  _285
REMARK  128  A    between atoms: _285  and  _286
REMARK  129  A    between atoms: _286  and  _287
REMARK  130  A    between atoms: _291  and  _293
REMARK  131  A    between atoms: _293  and  _294
REMARK  132  A    between atoms: _293  and  _296
REMARK  133  A    between atoms: _296  and  _297
REMARK  134  A    between atoms: _300  and  _302
REMARK  135  A    between atoms: _302  and  _303
REMARK  136  A    between atoms: _302  and  _305
REMARK  137  A    between atoms: _308  and  _310
REMARK  138  A    between atoms: _310  and  _311
REMARK  139  A    between atoms: _310  and  _313
REMARK  140  A    between atoms: _313  and  _314
REMARK  141  A    between atoms: _314  and  _315
REMARK  142  A    between atoms: _315  and  _316
REMARK  143  A    between atoms: _316  and  _317
REMARK  144  A    between atoms: _321  and  _323
REMARK  145  A    between atoms: _323  and  _324
REMARK  146  A    between atoms: _323  and  _326
REMARK  147  A    between atoms: _326  and  _327
REMARK  148  A    between atoms: _330  and  _332
REMARK  149  A    between atoms: _332  and  _333
REMARK  150  A    between atoms: _332  and  _335
REMARK  151  A    between atoms: _335  and  _336
REMARK  152  A    between atoms: _336  and  _337
REMARK  153  A    between atoms: _339  and  _341
REMARK  154  A    between atoms: _341  and  _342
REMARK  155  A    between atoms: _341  and  _344
REMARK  156  A    between atoms: _344  and  _345
REMARK  157  A    between atoms: _345  and  _346
REMARK  158  A    between atoms: _348  and  _350
REMARK  159  A    between atoms: _350  and  _351
REMARK  160  A    between atoms: _350  and  _353
REMARK  161  A    between atoms: _353  and  _354
REMARK  162  A    between atoms: _354  and  _355
REMARK  163  A    between atoms: _358  and  _360
REMARK  164  A    between atoms: _360  and  _361
REMARK  165  A    between atoms: _360  and  _363
REMARK  166  A    between atoms: _363  and  _364
REMARK  167  A    between atoms: _369  and  _370
REMARK  168  A    between atoms: _372  and  _374
REMARK  169  A    between atoms: _374  and  _375
REMARK  170  A    between atoms: _374  and  _377
REMARK  171  A    between atoms: _381  and  _382
REMARK  172  A    between atoms: _387  and  _389
REMARK  173  A    between atoms: _389  and  _390
REMARK  174  A    between atoms: _392  and  _394
REMARK  175  A    between atoms: _394  and  _395
REMARK  176  A    between atoms: _397  and  _399
REMARK  177  A    between atoms: _399  and  _400
REMARK  178  A    between atoms: _399  and  _402
REMARK  179  A    between atoms: _402  and  _403
REMARK  180  A    between atoms: _403  and  _404
REMARK  181  A    between atoms: _407  and  _409
REMARK  182  A    between atoms: _409  and  _410
REMARK  183  A    between atoms: _409  and  _412
REMARK  184  A    between atoms: _412  and  _413
REMARK  185  A    between atoms: _413  and  _414
REMARK  186  A    between atoms: _416  and  _418
REMARK  187  A    between atoms: _418  and  _419
REMARK  188  A    between atoms: _418  and  _421
REMARK  189  A    between atoms: _421  and  _422
REMARK  190  A    between atoms: _428  and  _430
REMARK  191  A    between atoms: _430  and  _431
REMARK  192  A    between atoms: _430  and  _433
REMARK  193  A    between atoms: _433  and  _434
REMARK  194  A    between atoms: _439  and  _440
REMARK  195  A    between atoms: _442  and  _444
REMARK  196  A    between atoms: _444  and  _445
REMARK  197  A    between atoms: _444  and  _447
REMARK  198  A    between atoms: _447  and  _448
REMARK  199  A    between atoms: _451  and  _453
REMARK  200  A    between atoms: _453  and  _454
REMARK  201  A    between atoms: _453  and  _456
REMARK  202  A    between atoms: _456  and  _457
REMARK  203  A    between atoms: _457  and  _458
REMARK  204  A    between atoms: _458  and  _459
REMARK  205  A    between atoms: _459  and  _460
REMARK  206  A    between atoms: _465  and  _466
REMARK  207  A    between atoms: _471  and  _473
REMARK  208  A    between atoms: _473  and  _474
REMARK  209  A    between atoms: _473  and  _476
REMARK  210  A    between atoms: _476  and  _477
REMARK  211  A    between atoms: _477  and  _478
REMARK  212  A    between atoms: _481  and  _483
REMARK  213  A    between atoms: _483  and  _484
REMARK  214  A    between atoms: _483  and  _486
REMARK  215  A    between atoms: _486  and  _487
REMARK  216  A    between atoms: _492  and  _494
REMARK  217  A    between atoms: _494  and  _495
REMARK  218  A    between atoms: _494  and  _497
REMARK  219  A    between atoms: _497  and  _498
REMARK  220  A    between atoms: _501  and  _503
REMARK  221  A    between atoms: _503  and  _504
REMARK  222  A    between atoms: _503  and  _506
REMARK  223  A    between atoms: _506  and  _507
REMARK  224  A    between atoms: _510  and  _512
REMARK  225  A    between atoms: _512  and  _513
REMARK  226  A    between atoms: _512  and  _515
REMARK  227  A    between atoms: _515  and  _516
REMARK  228  A    between atoms: _519  and  _521
REMARK  229  A    between atoms: _521  and  _522
REMARK  230  A    between atoms: _521  and  _524
REMARK  231  A    between atoms: _524  and  _525
REMARK  232  A    between atoms: _525  and  _526
REMARK  233  A    between atoms: _531  and  _533
REMARK  234  A    between atoms: _533  and  _534
REMARK  235  A    between atoms: _533  and  _536
REMARK  236  A    between atoms: _539  and  _541
REMARK  237  A    between atoms: _541  and  _542
REMARK  238  A    between atoms: _541  and  _544
REMARK  239  A    between atoms: _544  and  _545
REMARK  240  A    between atoms: _548  and  _550
REMARK  241  A    between atoms: _550  and  _551
REMARK  242  A    between atoms: _550  and  _553
REMARK  243  A    between atoms: _553  and  _554
REMARK  244  A    between atoms: _557  and  _559
REMARK  245  A    between atoms: _559  and  _560
REMARK  246  A    between atoms: _559  and  _562
REMARK  247  A    between atoms: _562  and  _563
REMARK  248  A    between atoms: _569  and  _571
REMARK  249  A    between atoms: _571  and  _572
REMARK  250  A    between atoms: _574  and  _576
REMARK  251  A    between atoms: _576  and  _577
REMARK  252  A    between atoms: _576  and  _579
REMARK  253  A    between atoms: _579  and  _580
REMARK  254  A    between atoms: _586  and  _588
REMARK  255  A    between atoms: _588  and  _589
REMARK  256  A    between atoms: _592  and  _594
REMARK  257  A    between atoms: _594  and  _595
REMARK  258  A    between atoms: _594  and  _597
REMARK  259  A    between atoms: _599  and  _601
REMARK  260  A    between atoms: _601  and  _602
REMARK  261  A    between atoms: _604  and  _606
REMARK  262  A    between atoms: _606  and  _607
REMARK  263  A    between atoms: _606  and  _609
REMARK  264  A    between atoms: _609  and  _610
REMARK  265  A    between atoms: _616  and  _618
REMARK  266  A    between atoms: _618  and  _619
REMARK  267  A    between atoms: _618  and  _621
REMARK  268  A    between atoms: _621  and  _622
REMARK  269  A    between atoms: _627  and  _628
REMARK                            x       y       z     vdW  Elec       q    Type
REMARK                         _______ _______ _______ _____ _____    ______ ____
ROOT
ATOM      1  CA  LYS A   2      19.306  15.588  29.492  0.00  0.00    +0.137 C 
ENDROOT
BRANCH   1   3
ATOM      2  C   VAL A   1      17.557  16.419  28.086  0.00  0.00    +0.238 C 
ATOM      3  N   LYS A   2      18.608  16.677  28.842  0.00  0.00    -0.298 N 
ATOM      4  H   LYS A   2      18.933  17.657  28.970  0.00  0.00    +0.150 HD
ATOM      5  O   VAL A   1      16.968  15.351  28.127  0.00  0.00    -0.274 OA
BRANCH   2   6
ATOM      6  CA  VAL A   1      17.108  17.517  27.156  0.00  0.00    +0.145 C 
BRANCH   6   7
ATOM      7  CB  VAL A   1      15.900  18.308  27.726  0.00  0.00    +0.025 C 
ATOM      8  CG2 VAL A   1      16.388  19.259  28.777  0.00  0.00    +0.002 C 
ATOM      9  CG1 VAL A   1      14.816  17.343  28.276  0.00  0.00    +0.002 C 
ENDBRANCH   6   7
BRANCH   6  10
ATOM     10  N   VAL A   1      16.806  16.938  25.860  0.00  0.00    -0.238 NA
ATOM     11  H   VAL A   1      15.826  16.978  25.514  0.00  0.00    +0.142 HD
ENDBRANCH   6  10
ENDBRANCH   2   6
ENDBRANCH   1   3
BRANCH   1  12
ATOM     12  C   LYS A   2      18.849  15.545  30.933  0.00  0.00    +0.227 C 
ATOM     13  O   LYS A   2      18.848  16.576  31.620  0.00  0.00    -0.286 OA
ENDBRANCH   1  12
BRANCH   1  14
ATOM     14  CB  LYS A   2      20.821  15.774  29.366  0.00  0.00    +0.028 C 
BRANCH  14  15
ATOM     15  CG  LYS A   2      21.664  14.928  30.357  0.00  0.00    -0.000 C 
BRANCH  15  16
ATOM     16  CD  LYS A   2      23.164  15.360  30.345  0.00  0.00    -0.024 C 
BRANCH  16  17
ATOM     17  CE  LYS A   2      24.111  14.232  30.845  0.00  0.00    -0.086 C 
BRANCH  17  18
ATOM     18  NZ  LYS A   2      25.539  14.685  30.810  0.00  0.00    +0.380 N 
ATOM     19  HZ1 LYS A   2      25.653  15.517  31.424  0.00  0.00    -0.089 HD
ATOM     20  HZ2 LYS A   2      26.153  13.917  31.148  0.00  0.00    -0.089 HD
ATOM     21  HZ3 LYS A   2      25.798  14.935  29.834  0.00  0.00    -0.089 HD
ENDBRANCH  17  18
ENDBRANCH  16  17
ENDBRANCH  15  16
ENDBRANCH  14  15
ENDBRANCH   1  14
TORSDOF 10
REMARK  Name = ../refined-set-2016/1xh4/1xh4_pocket.pdb
REMARK  269 active torsions:
REMARK  status: ('A' for Active; 'I' for Inactive)
REMARK    1  A    between atoms: _1  and  _3
REMARK    2  A    between atoms: _3  and  _4
REMARK    3  A    between atoms: _3  and  _6
REMARK    4  A    between atoms: _6  and  _7
REMARK    5  A    between atoms: _10  and  _12
REMARK    6  A    between atoms: _12  and  _13
REMARK    7  A    between atoms: _12  and  _15
REMARK    8  A    between atoms: _15  and  _16
REMARK    9  A    between atoms: _19  and  _21
REMARK   10  A    between atoms: _21  and  _22
REMARK   11  A    between atoms: _24  and  _26
REMARK   12  A    between atoms: _26  and  _27
REMARK   13  A    between atoms: _26  and  _29
REMARK   14  A    between atoms: _29  and  _30
REMARK   15  A    between atoms: _33  and  _35
REMARK   16  A    between atoms: _35  and  _36
REMARK   17  A    between atoms: _38  and  _40
REMARK   18  A    between atoms: _40  and  _41
REMARK   19  A    between atoms: _40  and  _43
REMARK   20  A    between atoms: _43  and  _44
REMARK   21  A    between atoms: _46  and  _48
REMARK   22  A    between atoms: _48  and  _49
REMARK   23  A    between atoms: _48  and  _51
REMARK   24  A    between atoms: _51  and  _52
REMARK   25  A    between atoms: _58  and  _60
REMARK   26  A    between atoms: _60  and  _61
REMARK   27  A    between atoms: _63  and  _65
REMARK   28  A    between atoms: _65  and  _66
REMARK   29  A    between atoms: _65  and  _68
REMARK   30  A    between atoms: _68  and  _69
REMARK   31  A    between atoms: _69  and  _70
REMARK   32  A    between atoms: _70  and  _71
REMARK   33  A    between atoms: _80  and  _82
REMARK   34  A    between atoms: _82  and  _83
REMARK   35  A    between atoms: _82  and  _85
REMARK   36  A    between atoms: _88  and  _90
REMARK   37  A    between atoms: _90  and  _91
REMARK   38  A    between atoms: _90  and  _93
REMARK   39  A    between atoms: _93  and  _94
REMARK   40  A    between atoms: _94  and  _95
REMARK   41  A    between atoms: _97  and  _99
REMARK   42  A    between atoms: _99  and  _100
REMARK   43  A    between atoms: _99  and  _102
REMARK   44  A    between atoms: _102  and  _103
REMARK   45  A    between atoms: _106  and  _108
REMARK   46  A    between atoms: _108  and  _109
REMARK   47  A    between atoms: _108  and  _111
REMARK   48  A    between atoms: _111  and  _112
REMARK   49  A    between atoms: _117  and  _118
REMARK   50  A    between atoms: _120  and  _122
REMARK   51  A    between atoms: _122  and  _123
REMARK   52  A    between atoms: _126  and  _128
REMARK   53  A    between atoms: _128  and  _129
REMARK   54  A    between atoms: _128  and  _131
REMARK   55  A    between atoms: _131  and  _132
REMARK   56  A    between atoms: _132  and  _133
REMARK   57  A    between atoms: _135  and  _137
REMARK   58  A    between atoms: _137  and  _138
REMARK   59  A    between atoms: _137  and  _140
REMARK   60  A    between atoms: _140  and  _141
REMARK   61  A    between atoms: _141  and  _142
REMARK   62  A    between atoms: _142  and  _143
REMARK   63  A    between atoms: _143  and  _144
REMARK   64  A    between atoms: _148  and  _150
REMARK   65  A    between atoms: _150  and  _151
REMARK   66  A    between atoms: _150  and  _153
REMARK   67  A    between atoms: _153  and  _154
REMARK   68  A    between atoms: _157  and  _159
REMARK   69  A    between atoms: _159  and  _160
REMARK   70  A    between atoms: _159  and  _162
REMARK   71  A    between atoms: _162  and  _163
REMARK   72  A    between atoms: _166  and  _168
REMARK   73  A    between atoms: _168  and  _169
REMARK   74  A    between atoms: _168  and  _171
REMARK   75  A    between atoms: _171  and  _172
REMARK   76  A    between atoms: _175  and  _177
REMARK   77  A    between atoms: _177  and  _178
REMARK   78  A    between atoms: _177  and  _180
REMARK   79  A    between atoms: _180  and  _181
REMARK   80  A    between atoms: _181  and  _182
REMARK   81  A    between atoms: _182  and  _183
REMARK   82  A    between atoms: _183  and  _184
REMARK   83  A    between atoms: _188  and  _190
REMARK   84  A    between atoms: _190  and  _191
REMARK   85  A    between atoms: _190  and  _193
REMARK   86  A    between atoms: _196  and  _198
REMARK   87  A    between atoms: _198  and  _199
REMARK   88  A    between atoms: _198  and  _201
REMARK   89  A    between atoms: _201  and  _202
REMARK   90  A    between atoms: _205  and  _207
REMARK   91  A    between atoms: _207  and  _208
REMARK   92  A    between atoms: _207  and  _210
REMARK   93  A    between atoms: _210  and  _211
REMARK   94  A    between atoms: _211  and  _212
REMARK   95  A    between atoms: _212  and  _213
REMARK   96  A    between atoms: _213  and  _214
REMARK   97  A    between atoms: _218  and  _220
REMARK   98  A    between atoms: _220  and  _221
REMARK   99  A    between atoms: _220  and  _223
REMARK  100  A    between atoms: _223  and  _224
REMARK  101  A    between atoms: _224  and  _225
REMARK  102  A    between atoms: _230  and  _232
REMARK  103  A    between atoms: _232  and  _233
REMARK  104  A    between atoms: _232  and  _235
REMARK  105  A    between atoms: _235  and  _236
REMARK  106  A    between atoms: _239  and  _241
REMARK  107  A    between atoms: _241  and  _242
REMARK  108  A    between atoms: _241  and  _244
REMARK  109  A    between atoms: _244  and  _245
REMARK  110  A    between atoms: _250  and  _252
REMARK  111  A    between atoms: _252  and  _253
REMARK  112  A    between atoms: _252  and  _255
REMARK  113  A    between atoms: _255  and  _256
REMARK  114  A    between atoms: _259  and  _261
REMARK  115  A    between atoms: _261  and  _262
REMARK  116  A    between atoms: _261  and  _264
REMARK  117  A    between atoms: _264  and  _265
REMARK  118  A    between atoms: _268  and  _270
REMARK  119  A    between atoms: _270  and  _271
REMARK  120  A    between atoms: _270  and  _273
REMARK  121  A    between atoms: _273  and  _274
REMARK  122  A    between atoms: _274  and  _275
REMARK  123  A    between atoms: _278  and  _280
REMARK  124  A    between atoms: _280  and  _281
REMARK  125  A    between atoms: _280  and  _283
REMARK  126  A    between atoms: _283  and  _284
REMARK  127  A    between atoms: _284  and  _285
REMARK  128  A    between atoms: _285  and  _286
REMARK  129  A    between atoms: _286  and  _287
REMARK  130  A    between atoms: _291  and  _293
REMARK  131  A    between atoms: _293  and  _294
REMARK  132  A    between atoms: _293  and  _296
REMARK  133  A    between atoms: _296  and  _297
REMARK  134  A    between atoms: _300  and  _302
REMARK  135  A    between atoms: _302  and  _303
REMARK  136  A    between atoms: _302  and  _305
REMARK  137  A    between atoms: _308  and  _310
REMARK  138  A    between atoms: _310  and  _311
REMARK  139  A    between atoms: _310  and  _313
REMARK  140  A    between atoms: _313  and  _314
REMARK  141  A    between atoms: _314  and  _315
REMARK  142  A    between atoms: _315  and  _316
REMARK  143  A    between atoms: _316  and  _317
REMARK  144  A    between atoms: _321  and  _323
REMARK  145  A    between atoms: _323  and  _324
REMARK  146  A    between atoms: _323  and  _326
REMARK  147  A    between atoms: _326  and  _327
REMARK  148  A    between atoms: _330  and  _332
REMARK  149  A    between atoms: _332  and  _333
REMARK  150  A    between atoms: _332  and  _335
REMARK  151  A    between atoms: _335  and  _336
REMARK  152  A    between atoms: _336  and  _337
REMARK  153  A    between atoms: _339  and  _341
REMARK  154  A    between atoms: _341  and  _342
REMARK  155  A    between atoms: _341  and  _344
REMARK  156  A    between atoms: _344  and  _345
REMARK  157  A    between atoms: _345  and  _346
REMARK  158  A    between atoms: _348  and  _350
REMARK  159  A    between atoms: _350  and  _351
REMARK  160  A    between atoms: _350  and  _353
REMARK  161  A    between atoms: _353  and  _354
REMARK  162  A    between atoms: _354  and  _355
REMARK  163  A    between atoms: _358  and  _360
REMARK  164  A    between atoms: _360  and  _361
REMARK  165  A    between atoms: _360  and  _363
REMARK  166  A    between atoms: _363  and  _364
REMARK  167  A    between atoms: _369  and  _370
REMARK  168  A    between atoms: _372  and  _374
REMARK  169  A    between atoms: _374  and  _375
REMARK  170  A    between atoms: _374  and  _377
REMARK  171  A    between atoms: _381  and  _382
REMARK  172  A    between atoms: _387  and  _389
REMARK  173  A    between atoms: _389  and  _390
REMARK  174  A    between atoms: _392  and  _394
REMARK  175  A    between atoms: _394  and  _395
REMARK  176  A    between atoms: _397  and  _399
REMARK  177  A    between atoms: _399  and  _400
REMARK  178  A    between atoms: _399  and  _402
REMARK  179  A    between atoms: _402  and  _403
REMARK  180  A    between atoms: _403  and  _404
REMARK  181  A    between atoms: _407  and  _409
REMARK  182  A    between atoms: _409  and  _410
REMARK  183  A    between atoms: _409  and  _412
REMARK  184  A    between atoms: _412  and  _413
REMARK  185  A    between atoms: _413  and  _414
REMARK  186  A    between atoms: _416  and  _418
REMARK  187  A    between atoms: _418  and  _419
REMARK  188  A    between atoms: _418  and  _421
REMARK  189  A    between atoms: _421  and  _422
REMARK  190  A    between atoms: _428  and  _430
REMARK  191  A    between atoms: _430  and  _431
REMARK  192  A    between atoms: _430  and  _433
REMARK  193  A    between atoms: _433  and  _434
REMARK  194  A    between atoms: _439  and  _440
REMARK  195  A    between atoms: _442  and  _444
REMARK  196  A    between atoms: _444  and  _445
REMARK  197  A    between atoms: _444  and  _447
REMARK  198  A    between atoms: _447  and  _448
REMARK  199  A    between atoms: _451  and  _453
REMARK  200  A    between atoms: _453  and  _454
REMARK  201  A    between atoms: _453  and  _456
REMARK  202  A    between atoms: _456  and  _457
REMARK  203  A    between atoms: _457  and  _458
REMARK  204  A    between atoms: _458  and  _459
REMARK  205  A    between atoms: _459  and  _460
REMARK  206  A    between atoms: _465  and  _466
REMARK  207  A    between atoms: _471  and  _473
REMARK  208  A    between atoms: _473  and  _474
REMARK  209  A    between atoms: _473  and  _476
REMARK  210  A    between atoms: _476  and  _477
REMARK  211  A    between atoms: _477  and  _478
REMARK  212  A    between atoms: _481  and  _483
REMARK  213  A    between atoms: _483  and  _484
REMARK  214  A    between atoms: _483  and  _486
REMARK  215  A    between atoms: _486  and  _487
REMARK  216  A    between atoms: _492  and  _494
REMARK  217  A    between atoms: _494  and  _495
REMARK  218  A    between atoms: _494  and  _497
REMARK  219  A    between atoms: _497  and  _498
REMARK  220  A    between atoms: _501  and  _503
REMARK  221  A    between atoms: _503  and  _504
REMARK  222  A    between atoms: _503  and  _506
REMARK  223  A    between atoms: _506  and  _507
REMARK  224  A    between atoms: _510  and  _512
REMARK  225  A    between atoms: _512  and  _513
REMARK  226  A    between atoms: _512  and  _515
REMARK  227  A    between atoms: _515  and  _516
REMARK  228  A    between atoms: _519  and  _521
REMARK  229  A    between atoms: _521  and  _522
REMARK  230  A    between atoms: _521  and  _524
REMARK  231  A    between atoms: _524  and  _525
REMARK  232  A    between atoms: _525  and  _526
REMARK  233  A    between atoms: _531  and  _533
REMARK  234  A    between atoms: _533  and  _534
REMARK  235  A    between atoms: _533  and  _536
REMARK  236  A    between atoms: _539  and  _541
REMARK  237  A    between atoms: _541  and  _542
REMARK  238  A    between atoms: _541  and  _544
REMARK  239  A    between atoms: _544  and  _545
REMARK  240  A    between atoms: _548  and  _550
REMARK  241  A    between atoms: _550  and  _551
REMARK  242  A    between atoms: _550  and  _553
REMARK  243  A    between atoms: _553  and  _554
REMARK  244  A    between atoms: _557  and  _559
REMARK  245  A    between atoms: _559  and  _560
REMARK  246  A    between atoms: _559  and  _562
REMARK  247  A    between atoms: _562  and  _563
REMARK  248  A    between atoms: _569  and  _571
REMARK  249  A    between atoms: _571  and  _572
REMARK  250  A    between atoms: _574  and  _576
REMARK  251  A    between atoms: _576  and  _577
REMARK  252  A    between atoms: _576  and  _579
REMARK  253  A    between atoms: _579  and  _580
REMARK  254  A    between atoms: _586  and  _588
REMARK  255  A    between atoms: _588  and  _589
REMARK  256  A    between atoms: _592  and  _594
REMARK  257  A    between atoms: _594  and  _595
REMARK  258  A    between atoms: _594  and  _597
REMARK  259  A    between atoms: _599  and  _601
REMARK  260  A    between atoms: _601  and  _602
REMARK  261  A    between atoms: _604  and  _606
REMARK  262  A    between atoms: _606  and  _607
REMARK  263  A    between atoms: _606  and  _609
REMARK  264  A    between atoms: _609  and  _610
REMARK  265  A    between atoms: _616  and  _618
REMARK  266  A    between atoms: _618  and  _619
REMARK  267  A    between atoms: _618  and  _621
REMARK  268  A    between atoms: _621  and  _622
REMARK  269  A    between atoms: _627  and  _628
REMARK                            x       y       z     vdW  Elec       q    Type
REMARK                         _______ _______ _______ _____ _____    ______ ____
ROOT
ATOM      1  CA  LEU A   1       7.472  12.722  41.353  0.00  0.00    +0.133 C 
ENDROOT
BRANCH   1   2
ATOM      2  N   LEU A   1       6.380  13.166  42.207  0.00  0.00    -0.239 NA
ATOM      3  H   LEU A   1       5.592  13.679  41.762  0.00  0.00    +0.142 HD
ENDBRANCH   1   2
BRANCH   1   4
ATOM      4  C   LEU A   1       8.356  13.909  40.934  0.00  0.00    +0.224 C 
ATOM      5  O   LEU A   1       7.872  15.018  40.718  0.00  0.00    -0.287 OA
ENDBRANCH   1   4
BRANCH   1   6
ATOM      6  CB  LEU A   1       6.930  12.086  40.079  0.00  0.00    +0.025 C 
BRANCH   6   7
ATOM      7  CG  LEU A   1       5.807  11.079  40.259  0.00  0.00    +0.002 C 
ATOM      8  CD2 LEU A   1       6.309   9.895  41.050  0.00  0.00    +0.000 C 
ATOM      9  CD1 LEU A   1       5.258  10.670  38.874  0.00  0.00    +0.000 C 
ENDBRANCH   6   7
ENDBRANCH   1   6
TORSDOF 4
REMARK  Name = ../refined-set-2016/1xh4/1xh4_pocket.pdb
REMARK  269 active torsions:
REMARK  status: ('A' for Active; 'I' for Inactive)
REMARK    1  A    between atoms: _1  and  _3
REMARK    2  A    between atoms: _3  and  _4
REMARK    3  A    between atoms: _3  and  _6
REMARK    4  A    between atoms: _6  and  _7
REMARK    5  A    between atoms: _10  and  _12
REMARK    6  A    between atoms: _12  and  _13
REMARK    7  A    between atoms: _12  and  _15
REMARK    8  A    between atoms: _15  and  _16
REMARK    9  A    between atoms: _19  and  _21
REMARK   10  A    between atoms: _21  and  _22
REMARK   11  A    between atoms: _24  and  _26
REMARK   12  A    between atoms: _26  and  _27
REMARK   13  A    between atoms: _26  and  _29
REMARK   14  A    between atoms: _29  and  _30
REMARK   15  A    between atoms: _33  and  _35
REMARK   16  A    between atoms: _35  and  _36
REMARK   17  A    between atoms: _38  and  _40
REMARK   18  A    between atoms: _40  and  _41
REMARK   19  A    between atoms: _40  and  _43
REMARK   20  A    between atoms: _43  and  _44
REMARK   21  A    between atoms: _46  and  _48
REMARK   22  A    between atoms: _48  and  _49
REMARK   23  A    between atoms: _48  and  _51
REMARK   24  A    between atoms: _51  and  _52
REMARK   25  A    between atoms: _58  and  _60
REMARK   26  A    between atoms: _60  and  _61
REMARK   27  A    between atoms: _63  and  _65
REMARK   28  A    between atoms: _65  and  _66
REMARK   29  A    between atoms: _65  and  _68
REMARK   30  A    between atoms: _68  and  _69
REMARK   31  A    between atoms: _69  and  _70
REMARK   32  A    between atoms: _70  and  _71
REMARK   33  A    between atoms: _80  and  _82
REMARK   34  A    between atoms: _82  and  _83
REMARK   35  A    between atoms: _82  and  _85
REMARK   36  A    between atoms: _88  and  _90
REMARK   37  A    between atoms: _90  and  _91
REMARK   38  A    between atoms: _90  and  _93
REMARK   39  A    between atoms: _93  and  _94
REMARK   40  A    between atoms: _94  and  _95
REMARK   41  A    between atoms: _97  and  _99
REMARK   42  A    between atoms: _99  and  _100
REMARK   43  A    between atoms: _99  and  _102
REMARK   44  A    between atoms: _102  and  _103
REMARK   45  A    between atoms: _106  and  _108
REMARK   46  A    between atoms: _108  and  _109
REMARK   47  A    between atoms: _108  and  _111
REMARK   48  A    between atoms: _111  and  _112
REMARK   49  A    between atoms: _117  and  _118
REMARK   50  A    between atoms: _120  and  _122
REMARK   51  A    between atoms: _122  and  _123
REMARK   52  A    between atoms: _126  and  _128
REMARK   53  A    between atoms: _128  and  _129
REMARK   54  A    between atoms: _128  and  _131
REMARK   55  A    between atoms: _131  and  _132
REMARK   56  A    between atoms: _132  and  _133
REMARK   57  A    between atoms: _135  and  _137
REMARK   58  A    between atoms: _137  and  _138
REMARK   59  A    between atoms: _137  and  _140
REMARK   60  A    between atoms: _140  and  _141
REMARK   61  A    between atoms: _141  and  _142
REMARK   62  A    between atoms: _142  and  _143
REMARK   63  A    between atoms: _143  and  _144
REMARK   64  A    between atoms: _148  and  _150
REMARK   65  A    between atoms: _150  and  _151
REMARK   66  A    between atoms: _150  and  _153
REMARK   67  A    between atoms: _153  and  _154
REMARK   68  A    between atoms: _157  and  _159
REMARK   69  A    between atoms: _159  and  _160
REMARK   70  A    between atoms: _159  and  _162
REMARK   71  A    between atoms: _162  and  _163
REMARK   72  A    between atoms: _166  and  _168
REMARK   73  A    between atoms: _168  and  _169
REMARK   74  A    between atoms: _168  and  _171
REMARK   75  A    between atoms: _171  and  _172
REMARK   76  A    between atoms: _175  and  _177
REMARK   77  A    between atoms: _177  and  _178
REMARK   78  A    between atoms: _177  and  _180
REMARK   79  A    between atoms: _180  and  _181
REMARK   80  A    between atoms: _181  and  _182
REMARK   81  A    between atoms: _182  and  _183
REMARK   82  A    between atoms: _183  and  _184
REMARK   83  A    between atoms: _188  and  _190
REMARK   84  A    between atoms: _190  and  _191
REMARK   85  A    between atoms: _190  and  _193
REMARK   86  A    between atoms: _196  and  _198
REMARK   87  A    between atoms: _198  and  _199
REMARK   88  A    between atoms: _198  and  _201
REMARK   89  A    between atoms: _201  and  _202
REMARK   90  A    between atoms: _205  and  _207
REMARK   91  A    between atoms: _207  and  _208
REMARK   92  A    between atoms: _207  and  _210
REMARK   93  A    between atoms: _210  and  _211
REMARK   94  A    between atoms: _211  and  _212
REMARK   95  A    between atoms: _212  and  _213
REMARK   96  A    between atoms: _213  and  _214
REMARK   97  A    between atoms: _218  and  _220
REMARK   98  A    between atoms: _220  and  _221
REMARK   99  A    between atoms: _220  and  _223
REMARK  100  A    between atoms: _223  and  _224
REMARK  101  A    between atoms: _224  and  _225
REMARK  102  A    between atoms: _230  and  _232
REMARK  103  A    between atoms: _232  and  _233
REMARK  104  A    between atoms: _232  and  _235
REMARK  105  A    between atoms: _235  and  _236
REMARK  106  A    between atoms: _239  and  _241
REMARK  107  A    between atoms: _241  and  _242
REMARK  108  A    between atoms: _241  and  _244
REMARK  109  A    between atoms: _244  and  _245
REMARK  110  A    between atoms: _250  and  _252
REMARK  111  A    between atoms: _252  and  _253
REMARK  112  A    between atoms: _252  and  _255
REMARK  113  A    between atoms: _255  and  _256
REMARK  114  A    between atoms: _259  and  _261
REMARK  115  A    between atoms: _261  and  _262
REMARK  116  A    between atoms: _261  and  _264
REMARK  117  A    between atoms: _264  and  _265
REMARK  118  A    between atoms: _268  and  _270
REMARK  119  A    between atoms: _270  and  _271
REMARK  120  A    between atoms: _270  and  _273
REMARK  121  A    between atoms: _273  and  _274
REMARK  122  A    between atoms: _274  and  _275
REMARK  123  A    between atoms: _278  and  _280
REMARK  124  A    between atoms: _280  and  _281
REMARK  125  A    between atoms: _280  and  _283
REMARK  126  A    between atoms: _283  and  _284
REMARK  127  A    between atoms: _284  and  _285
REMARK  128  A    between atoms: _285  and  _286
REMARK  129  A    between atoms: _286  and  _287
REMARK  130  A    between atoms: _291  and  _293
REMARK  131  A    between atoms: _293  and  _294
REMARK  132  A    between atoms: _293  and  _296
REMARK  133  A    between atoms: _296  and  _297
REMARK  134  A    between atoms: _300  and  _302
REMARK  135  A    between atoms: _302  and  _303
REMARK  136  A    between atoms: _302  and  _305
REMARK  137  A    between atoms: _308  and  _310
REMARK  138  A    between atoms: _310  and  _311
REMARK  139  A    between atoms: _310  and  _313
REMARK  140  A    between atoms: _313  and  _314
REMARK  141  A    between atoms: _314  and  _315
REMARK  142  A    between atoms: _315  and  _316
REMARK  143  A    between atoms: _316  and  _317
REMARK  144  A    between atoms: _321  and  _323
REMARK  145  A    between atoms: _323  and  _324
REMARK  146  A    between atoms: _323  and  _326
REMARK  147  A    between atoms: _326  and  _327
REMARK  148  A    between atoms: _330  and  _332
REMARK  149  A    between atoms: _332  and  _333
REMARK  150  A    between atoms: _332  and  _335
REMARK  151  A    between atoms: _335  and  _336
REMARK  152  A    between atoms: _336  and  _337
REMARK  153  A    between atoms: _339  and  _341
REMARK  154  A    between atoms: _341  and  _342
REMARK  155  A    between atoms: _341  and  _344
REMARK  156  A    between atoms: _344  and  _345
REMARK  157  A    between atoms: _345  and  _346
REMARK  158  A    between atoms: _348  and  _350
REMARK  159  A    between atoms: _350  and  _351
REMARK  160  A    between atoms: _350  and  _353
REMARK  161  A    between atoms: _353  and  _354
REMARK  162  A    between atoms: _354  and  _355
REMARK  163  A    between atoms: _358  and  _360
REMARK  164  A    between atoms: _360  and  _361
REMARK  165  A    between atoms: _360  and  _363
REMARK  166  A    between atoms: _363  and  _364
REMARK  167  A    between atoms: _369  and  _370
REMARK  168  A    between atoms: _372  and  _374
REMARK  169  A    between atoms: _374  and  _375
REMARK  170  A    between atoms: _374  and  _377
REMARK  171  A    between atoms: _381  and  _382
REMARK  172  A    between atoms: _387  and  _389
REMARK  173  A    between atoms: _389  and  _390
REMARK  174  A    between atoms: _392  and  _394
REMARK  175  A    between atoms: _394  and  _395
REMARK  176  A    between atoms: _397  and  _399
REMARK  177  A    between atoms: _399  and  _400
REMARK  178  A    between atoms: _399  and  _402
REMARK  179  A    between atoms: _402  and  _403
REMARK  180  A    between atoms: _403  and  _404
REMARK  181  A    between atoms: _407  and  _409
REMARK  182  A    between atoms: _409  and  _410
REMARK  183  A    between atoms: _409  and  _412
REMARK  184  A    between atoms: _412  and  _413
REMARK  185  A    between atoms: _413  and  _414
REMARK  186  A    between atoms: _416  and  _418
REMARK  187  A    between atoms: _418  and  _419
REMARK  188  A    between atoms: _418  and  _421
REMARK  189  A    between atoms: _421  and  _422
REMARK  190  A    between atoms: _428  and  _430
REMARK  191  A    between atoms: _430  and  _431
REMARK  192  A    between atoms: _430  and  _433
REMARK  193  A    between atoms: _433  and  _434
REMARK  194  A    between atoms: _439  and  _440
REMARK  195  A    between atoms: _442  and  _444
REMARK  196  A    between atoms: _444  and  _445
REMARK  197  A    between atoms: _444  and  _447
REMARK  198  A    between atoms: _447  and  _448
REMARK  199  A    between atoms: _451  and  _453
REMARK  200  A    between atoms: _453  and  _454
REMARK  201  A    between atoms: _453  and  _456
REMARK  202  A    between atoms: _456  and  _457
REMARK  203  A    between atoms: _457  and  _458
REMARK  204  A    between atoms: _458  and  _459
REMARK  205  A    between atoms: _459  and  _460
REMARK  206  A    between atoms: _465  and  _466
REMARK  207  A    between atoms: _471  and  _473
REMARK  208  A    between atoms: _473  and  _474
REMARK  209  A    between atoms: _473  and  _476
REMARK  210  A    between atoms: _476  and  _477
REMARK  211  A    between atoms: _477  and  _478
REMARK  212  A    between atoms: _481  and  _483
REMARK  213  A    between atoms: _483  and  _484
REMARK  214  A    between atoms: _483  and  _486
REMARK  215  A    between atoms: _486  and  _487
REMARK  216  A    between atoms: _492  and  _494
REMARK  217  A    between atoms: _494  and  _495
REMARK  218  A    between atoms: _494  and  _497
REMARK  219  A    between atoms: _497  and  _498
REMARK  220  A    between atoms: _501  and  _503
REMARK  221  A    between atoms: _503  and  _504
REMARK  222  A    between atoms: _503  and  _506
REMARK  223  A    between atoms: _506  and  _507
REMARK  224  A    between atoms: _510  and  _512
REMARK  225  A    between atoms: _512  and  _513
REMARK  226  A    between atoms: _512  and  _515
REMARK  227  A    between atoms: _515  and  _516
REMARK  228  A    between atoms: _519  and  _521
REMARK  229  A    between atoms: _521  and  _522
REMARK  230  A    between atoms: _521  and  _524
REMARK  231  A    between atoms: _524  and  _525
REMARK  232  A    between atoms: _525  and  _526
REMARK  233  A    between atoms: _531  and  _533
REMARK  234  A    between atoms: _533  and  _534
REMARK  235  A    between atoms: _533  and  _536
REMARK  236  A    between atoms: _539  and  _541
REMARK  237  A    between atoms: _541  and  _542
REMARK  238  A    between atoms: _541  and  _544
REMARK  239  A    between atoms: _544  and  _545
REMARK  240  A    between atoms: _548  and  _550
REMARK  241  A    between atoms: _550  and  _551
REMARK  242  A    between atoms: _550  and  _553
REMARK  243  A    between atoms: _553  and  _554
REMARK  244  A    between atoms: _557  and  _559
REMARK  245  A    between atoms: _559  and  _560
REMARK  246  A    between atoms: _559  and  _562
REMARK  247  A    between atoms: _562  and  _563
REMARK  248  A    between atoms: _569  and  _571
REMARK  249  A    between atoms: _571  and  _572
REMARK  250  A    between atoms: _574  and  _576
REMARK  251  A    between atoms: _576  and  _577
REMARK  252  A    between atoms: _576  and  _579
REMARK  253  A    between atoms: _579  and  _580
REMARK  254  A    between atoms: _586  and  _588
REMARK  255  A    between atoms: _588  and  _589
REMARK  256  A    between atoms: _592  and  _594
REMARK  257  A    between atoms: _594  and  _595
REMARK  258  A    between atoms: _594  and  _597
REMARK  259  A    between atoms: _599  and  _601
REMARK  260  A    between atoms: _601  and  _602
REMARK  261  A    between atoms: _604  and  _606
REMARK  262  A    between atoms: _606  and  _607
REMARK  263  A    between atoms: _606  and  _609
REMARK  264  A    between atoms: _609  and  _610
REMARK  265  A    between atoms: _616  and  _618
REMARK  266  A    between atoms: _618  and  _619
REMARK  267  A    between atoms: _618  and  _621
REMARK  268  A    between atoms: _621  and  _622
REMARK  269  A    between atoms: _627  and  _628
REMARK                            x       y       z     vdW  Elec       q    Type
REMARK                         _______ _______ _______ _____ _____    ______ ____
ROOT
ATOM      1  CA  MET A   1      12.719  14.843  37.311  0.00  0.00    +0.134 C 
ENDROOT
BRANCH   1   2
ATOM      2  N   MET A   1      11.762  15.014  38.383  0.00  0.00    -0.239 NA
ATOM      3  H   MET A   1      11.193  15.884  38.379  0.00  0.00    +0.142 HD
ENDBRANCH   1   2
BRANCH   1   4
ATOM      4  C   MET A   1      13.526  16.142  37.244  0.00  0.00    +0.224 C 
ATOM      5  O   MET A   1      12.961  17.186  36.938  0.00  0.00    -0.287 OA
ENDBRANCH   1   4
BRANCH   1   6
ATOM      6  CB  MET A   1      12.002  14.612  35.983  0.00  0.00    +0.037 C 
BRANCH   6   7
ATOM      7  CG  MET A   1      11.659  13.142  35.686  0.00  0.00    +0.059 C 
BRANCH   7   8
ATOM      8  SD  MET A   1      10.466  12.941  34.334  0.00  0.00    -0.139 S 
ATOM      9  CE  MET A   1       9.054  13.147  35.265  0.00  0.00    +0.069 C 
ENDBRANCH   7   8
ENDBRANCH   6   7
ENDBRANCH   1   6
TORSDOF 5
REMARK  Name = ../refined-set-2016/1xh4/1xh4_pocket.pdb
REMARK  269 active torsions:
REMARK  status: ('A' for Active; 'I' for Inactive)
REMARK    1  A    between atoms: _1  and  _3
REMARK    2  A    between atoms: _3  and  _4
REMARK    3  A    between atoms: _3  and  _6
REMARK    4  A    between atoms: _6  and  _7
REMARK    5  A    between atoms: _10  and  _12
REMARK    6  A    between atoms: _12  and  _13
REMARK    7  A    between atoms: _12  and  _15
REMARK    8  A    between atoms: _15  and  _16
REMARK    9  A    between atoms: _19  and  _21
REMARK   10  A    between atoms: _21  and  _22
REMARK   11  A    between atoms: _24  and  _26
REMARK   12  A    between atoms: _26  and  _27
REMARK   13  A    between atoms: _26  and  _29
REMARK   14  A    between atoms: _29  and  _30
REMARK   15  A    between atoms: _33  and  _35
REMARK   16  A    between atoms: _35  and  _36
REMARK   17  A    between atoms: _38  and  _40
REMARK   18  A    between atoms: _40  and  _41
REMARK   19  A    between atoms: _40  and  _43
REMARK   20  A    between atoms: _43  and  _44
REMARK   21  A    between atoms: _46  and  _48
REMARK   22  A    between atoms: _48  and  _49
REMARK   23  A    between atoms: _48  and  _51
REMARK   24  A    between atoms: _51  and  _52
REMARK   25  A    between atoms: _58  and  _60
REMARK   26  A    between atoms: _60  and  _61
REMARK   27  A    between atoms: _63  and  _65
REMARK   28  A    between atoms: _65  and  _66
REMARK   29  A    between atoms: _65  and  _68
REMARK   30  A    between atoms: _68  and  _69
REMARK   31  A    between atoms: _69  and  _70
REMARK   32  A    between atoms: _70  and  _71
REMARK   33  A    between atoms: _80  and  _82
REMARK   34  A    between atoms: _82  and  _83
REMARK   35  A    between atoms: _82  and  _85
REMARK   36  A    between atoms: _88  and  _90
REMARK   37  A    between atoms: _90  and  _91
REMARK   38  A    between atoms: _90  and  _93
REMARK   39  A    between atoms: _93  and  _94
REMARK   40  A    between atoms: _94  and  _95
REMARK   41  A    between atoms: _97  and  _99
REMARK   42  A    between atoms: _99  and  _100
REMARK   43  A    between atoms: _99  and  _102
REMARK   44  A    between atoms: _102  and  _103
REMARK   45  A    between atoms: _106  and  _108
REMARK   46  A    between atoms: _108  and  _109
REMARK   47  A    between atoms: _108  and  _111
REMARK   48  A    between atoms: _111  and  _112
REMARK   49  A    between atoms: _117  and  _118
REMARK   50  A    between atoms: _120  and  _122
REMARK   51  A    between atoms: _122  and  _123
REMARK   52  A    between atoms: _126  and  _128
REMARK   53  A    between atoms: _128  and  _129
REMARK   54  A    between atoms: _128  and  _131
REMARK   55  A    between atoms: _131  and  _132
REMARK   56  A    between atoms: _132  and  _133
REMARK   57  A    between atoms: _135  and  _137
REMARK   58  A    between atoms: _137  and  _138
REMARK   59  A    between atoms: _137  and  _140
REMARK   60  A    between atoms: _140  and  _141
REMARK   61  A    between atoms: _141  and  _142
REMARK   62  A    between atoms: _142  and  _143
REMARK   63  A    between atoms: _143  and  _144
REMARK   64  A    between atoms: _148  and  _150
REMARK   65  A    between atoms: _150  and  _151
REMARK   66  A    between atoms: _150  and  _153
REMARK   67  A    between atoms: _153  and  _154
REMARK   68  A    between atoms: _157  and  _159
REMARK   69  A    between atoms: _159  and  _160
REMARK   70  A    between atoms: _159  and  _162
REMARK   71  A    between atoms: _162  and  _163
REMARK   72  A    between atoms: _166  and  _168
REMARK   73  A    between atoms: _168  and  _169
REMARK   74  A    between atoms: _168  and  _171
REMARK   75  A    between atoms: _171  and  _172
REMARK   76  A    between atoms: _175  and  _177
REMARK   77  A    between atoms: _177  and  _178
REMARK   78  A    between atoms: _177  and  _180
REMARK   79  A    between atoms: _180  and  _181
REMARK   80  A    between atoms: _181  and  _182
REMARK   81  A    between atoms: _182  and  _183
REMARK   82  A    between atoms: _183  and  _184
REMARK   83  A    between atoms: _188  and  _190
REMARK   84  A    between atoms: _190  and  _191
REMARK   85  A    between atoms: _190  and  _193
REMARK   86  A    between atoms: _196  and  _198
REMARK   87  A    between atoms: _198  and  _199
REMARK   88  A    between atoms: _198  and  _201
REMARK   89  A    between atoms: _201  and  _202
REMARK   90  A    between atoms: _205  and  _207
REMARK   91  A    between atoms: _207  and  _208
REMARK   92  A    between atoms: _207  and  _210
REMARK   93  A    between atoms: _210  and  _211
REMARK   94  A    between atoms: _211  and  _212
REMARK   95  A    between atoms: _212  and  _213
REMARK   96  A    between atoms: _213  and  _214
REMARK   97  A    between atoms: _218  and  _220
REMARK   98  A    between atoms: _220  and  _221
REMARK   99  A    between atoms: _220  and  _223
REMARK  100  A    between atoms: _223  and  _224
REMARK  101  A    between atoms: _224  and  _225
REMARK  102  A    between atoms: _230  and  _232
REMARK  103  A    between atoms: _232  and  _233
REMARK  104  A    between atoms: _232  and  _235
REMARK  105  A    between atoms: _235  and  _236
REMARK  106  A    between atoms: _239  and  _241
REMARK  107  A    between atoms: _241  and  _242
REMARK  108  A    between atoms: _241  and  _244
REMARK  109  A    between atoms: _244  and  _245
REMARK  110  A    between atoms: _250  and  _252
REMARK  111  A    between atoms: _252  and  _253
REMARK  112  A    between atoms: _252  and  _255
REMARK  113  A    between atoms: _255  and  _256
REMARK  114  A    between atoms: _259  and  _261
REMARK  115  A    between atoms: _261  and  _262
REMARK  116  A    between atoms: _261  and  _264
REMARK  117  A    between atoms: _264  and  _265
REMARK  118  A    between atoms: _268  and  _270
REMARK  119  A    between atoms: _270  and  _271
REMARK  120  A    between atoms: _270  and  _273
REMARK  121  A    between atoms: _273  and  _274
REMARK  122  A    between atoms: _274  and  _275
REMARK  123  A    between atoms: _278  and  _280
REMARK  124  A    between atoms: _280  and  _281
REMARK  125  A    between atoms: _280  and  _283
REMARK  126  A    between atoms: _283  and  _284
REMARK  127  A    between atoms: _284  and  _285
REMARK  128  A    between atoms: _285  and  _286
REMARK  129  A    between atoms: _286  and  _287
REMARK  130  A    between atoms: _291  and  _293
REMARK  131  A    between atoms: _293  and  _294
REMARK  132  A    between atoms: _293  and  _296
REMARK  133  A    between atoms: _296  and  _297
REMARK  134  A    between atoms: _300  and  _302
REMARK  135  A    between atoms: _302  and  _303
REMARK  136  A    between atoms: _302  and  _305
REMARK  137  A    between atoms: _308  and  _310
REMARK  138  A    between atoms: _310  and  _311
REMARK  139  A    between atoms: _310  and  _313
REMARK  140  A    between atoms: _313  and  _314
REMARK  141  A    between atoms: _314  and  _315
REMARK  142  A    between atoms: _315  and  _316
REMARK  143  A    between atoms: _316  and  _317
REMARK  144  A    between atoms: _321  and  _323
REMARK  145  A    between atoms: _323  and  _324
REMARK  146  A    between atoms: _323  and  _326
REMARK  147  A    between atoms: _326  and  _327
REMARK  148  A    between atoms: _330  and  _332
REMARK  149  A    between atoms: _332  and  _333
REMARK  150  A    between atoms: _332  and  _335
REMARK  151  A    between atoms: _335  and  _336
REMARK  152  A    between atoms: _336  and  _337
REMARK  153  A    between atoms: _339  and  _341
REMARK  154  A    between atoms: _341  and  _342
REMARK  155  A    between atoms: _341  and  _344
REMARK  156  A    between atoms: _344  and  _345
REMARK  157  A    between atoms: _345  and  _346
REMARK  158  A    between atoms: _348  and  _350
REMARK  159  A    between atoms: _350  and  _351
REMARK  160  A    between atoms: _350  and  _353
REMARK  161  A    between atoms: _353  and  _354
REMARK  162  A    between atoms: _354  and  _355
REMARK  163  A    between atoms: _358  and  _360
REMARK  164  A    between atoms: _360  and  _361
REMARK  165  A    between atoms: _360  and  _363
REMARK  166  A    between atoms: _363  and  _364
REMARK  167  A    between atoms: _369  and  _370
REMARK  168  A    between atoms: _372  and  _374
REMARK  169  A    between atoms: _374  and  _375
REMARK  170  A    between atoms: _374  and  _377
REMARK  171  A    between atoms: _381  and  _382
REMARK  172  A    between atoms: _387  and  _389
REMARK  173  A    between atoms: _389  and  _390
REMARK  174  A    between atoms: _392  and  _394
REMARK  175  A    between atoms: _394  and  _395
REMARK  176  A    between atoms: _397  and  _399
REMARK  177  A    between atoms: _399  and  _400
REMARK  178  A    between atoms: _399  and  _402
REMARK  179  A    between atoms: _402  and  _403
REMARK  180  A    between atoms: _403  and  _404
REMARK  181  A    between atoms: _407  and  _409
REMARK  182  A    between atoms: _409  and  _410
REMARK  183  A    between atoms: _409  and  _412
REMARK  184  A    between atoms: _412  and  _413
REMARK  185  A    between atoms: _413  and  _414
REMARK  186  A    between atoms: _416  and  _418
REMARK  187  A    between atoms: _418  and  _419
REMARK  188  A    between atoms: _418  and  _421
REMARK  189  A    between atoms: _421  and  _422
REMARK  190  A    between atoms: _428  and  _430
REMARK  191  A    between atoms: _430  and  _431
REMARK  192  A    between atoms: _430  and  _433
REMARK  193  A    between atoms: _433  and  _434
REMARK  194  A    between atoms: _439  and  _440
REMARK  195  A    between atoms: _442  and  _444
REMARK  196  A    between atoms: _444  and  _445
REMARK  197  A    between atoms: _444  and  _447
REMARK  198  A    between atoms: _447  and  _448
REMARK  199  A    between atoms: _451  and  _453
REMARK  200  A    between atoms: _453  and  _454
REMARK  201  A    between atoms: _453  and  _456
REMARK  202  A    between atoms: _456  and  _457
REMARK  203  A    between atoms: _457  and  _458
REMARK  204  A    between atoms: _458  and  _459
REMARK  205  A    between atoms: _459  and  _460
REMARK  206  A    between atoms: _465  and  _466
REMARK  207  A    between atoms: _471  and  _473
REMARK  208  A    between atoms: _473  and  _474
REMARK  209  A    between atoms: _473  and  _476
REMARK  210  A    between atoms: _476  and  _477
REMARK  211  A    between atoms: _477  and  _478
REMARK  212  A    between atoms: _481  and  _483
REMARK  213  A    between atoms: _483  and  _484
REMARK  214  A    between atoms: _483  and  _486
REMARK  215  A    between atoms: _486  and  _487
REMARK  216  A    between atoms: _492  and  _494
REMARK  217  A    between atoms: _494  and  _495
REMARK  218  A    between atoms: _494  and  _497
REMARK  219  A    between atoms: _497  and  _498
REMARK  220  A    between atoms: _501  and  _503
REMARK  221  A    between atoms: _503  and  _504
REMARK  222  A    between atoms: _503  and  _506
REMARK  223  A    between atoms: _506  and  _507
REMARK  224  A    between atoms: _510  and  _512
REMARK  225  A    between atoms: _512  and  _513
REMARK  226  A    between atoms: _512  and  _515
REMARK  227  A    between atoms: _515  and  _516
REMARK  228  A    between atoms: _519  and  _521
REMARK  229  A    between atoms: _521  and  _522
REMARK  230  A    between atoms: _521  and  _524
REMARK  231  A    between atoms: _524  and  _525
REMARK  232  A    between atoms: _525  and  _526
REMARK  233  A    between atoms: _531  and  _533
REMARK  234  A    between atoms: _533  and  _534
REMARK  235  A    between atoms: _533  and  _536
REMARK  236  A    between atoms: _539  and  _541
REMARK  237  A    between atoms: _541  and  _542
REMARK  238  A    between atoms: _541  and  _544
REMARK  239  A    between atoms: _544  and  _545
REMARK  240  A    between atoms: _548  and  _550
REMARK  241  A    between atoms: _550  and  _551
REMARK  242  A    between atoms: _550  and  _553
REMARK  243  A    between atoms: _553  and  _554
REMARK  244  A    between atoms: _557  and  _559
REMARK  245  A    between atoms: _559  and  _560
REMARK  246  A    between atoms: _559  and  _562
REMARK  247  A    between atoms: _562  and  _563
REMARK  248  A    between atoms: _569  and  _571
REMARK  249  A    between atoms: _571  and  _572
REMARK  250  A    between atoms: _574  and  _576
REMARK  251  A    between atoms: _576  and  _577
REMARK  252  A    between atoms: _576  and  _579
REMARK  253  A    between atoms: _579  and  _580
REMARK  254  A    between atoms: _586  and  _588
REMARK  255  A    between atoms: _588  and  _589
REMARK  256  A    between atoms: _592  and  _594
REMARK  257  A    between atoms: _594  and  _595
REMARK  258  A    between atoms: _594  and  _597
REMARK  259  A    between atoms: _599  and  _601
REMARK  260  A    between atoms: _601  and  _602
REMARK  261  A    between atoms: _604  and  _606
REMARK  262  A    between atoms: _606  and  _607
REMARK  263  A    between atoms: _606  and  _609
REMARK  264  A    between atoms: _609  and  _610
REMARK  265  A    between atoms: _616  and  _618
REMARK  266  A    between atoms: _618  and  _619
REMARK  267  A    between atoms: _618  and  _621
REMARK  268  A    between atoms: _621  and  _622
REMARK  269  A    between atoms: _627  and  _628
REMARK                            x       y       z     vdW  Elec       q    Type
REMARK                         _______ _______ _______ _____ _____    ______ ____
ROOT
ATOM      1  C   VAL A   4      17.146  26.789  28.851  0.00  0.00    +0.244 C 
ATOM      2  N   PRO A   5      18.101  27.716  28.979  0.00  0.00    -0.272 N 
ATOM      3  CA  PRO A   5      17.770  29.109  29.340  0.00  0.00    +0.152 C 
ATOM      4  CB  PRO A   5      19.119  29.658  29.823  0.00  0.00    +0.031 C 
ATOM      5  CG  PRO A   5      20.103  28.961  28.975  0.00  0.00    +0.024 C 
ATOM      6  CD  PRO A   5      19.554  27.518  28.795  0.00  0.00    +0.094 C 
ATOM      7  O   VAL A   4      15.935  27.076  28.638  0.00  0.00    -0.273 OA
ENDROOT
BRANCH   3   8
ATOM      8  C   PRO A   5      17.198  29.966  28.212  0.00  0.00    +0.241 C 
ATOM      9  O   PRO A   5      16.718  31.072  28.478  0.00  0.00    -0.273 OA
ATOM     10  N   GLY A   6      17.295  29.511  26.967  0.00  0.00    -0.295 N 
ATOM     11  H   GLY A   6      17.693  28.565  26.799  0.00  0.00    +0.150 HD
BRANCH  10  12
ATOM     12  CA  GLY A   6      16.851  30.317  25.825  0.00  0.00    +0.176 C 
BRANCH  12  13
ATOM     13  C   GLY A   6      15.340  30.470  25.635  0.00  0.00    +0.243 C 
ATOM     14  N   GLY A   7      14.563  29.649  26.334  0.00  0.00    -0.295 N 
ATOM     15  H   GLY A   7      15.027  28.936  26.932  0.00  0.00    +0.150 HD
ATOM     16  O   GLY A   6      14.899  31.335  24.881  0.00  0.00    -0.273 OA
BRANCH  14  17
ATOM     17  CA  GLY A   7      13.120  29.678  26.322  0.00  0.00    +0.176 C 
BRANCH  17  18
ATOM     18  C   GLY A   7      12.493  28.840  25.226  0.00  0.00    +0.243 C 
ATOM     19  N   GLU A   8      11.200  28.624  25.339  0.00  0.00    -0.297 N 
ATOM     20  H   GLU A   8      10.683  29.001  26.159  0.00  0.00    +0.150 HD
ATOM     21  O   GLY A   7      13.128  28.403  24.283  0.00  0.00    -0.273 OA
BRANCH  19  22
ATOM     22  CA  GLU A   8      10.494  27.867  24.332  0.00  0.00    +0.149 C 
BRANCH  22  23
ATOM     23  C   GLU A   8      10.540  28.551  22.948  0.00  0.00    +0.241 C 
ATOM     24  O   GLU A   8      10.375  29.785  22.830  0.00  0.00    -0.273 OA
ATOM     25  N   MET A   9      10.751  27.755  21.905  0.00  0.00    -0.297 N 
ATOM     26  H   MET A   9      11.060  26.775  22.064  0.00  0.00    +0.150 HD
BRANCH  25  27
ATOM     27  CA  MET A   9      10.557  28.233  20.545  0.00  0.00    +0.149 C 
BRANCH  27  28
ATOM     28  C   MET A   9       9.205  28.951  20.396  0.00  0.00    +0.241 C 
ATOM     29  N   PHE A  10       8.175  28.427  21.071  0.00  0.00    -0.298 N 
ATOM     30  H   PHE A  10       8.329  27.599  21.681  0.00  0.00    +0.150 HD
ATOM     31  O   MET A   9       9.097  29.974  19.665  0.00  0.00    -0.273 OA
BRANCH  29  32
ATOM     32  CA  PHE A  10       6.846  29.000  20.963  0.00  0.00    +0.141 C 
BRANCH  32  33
ATOM     33  C   PHE A  10       6.898  30.519  21.270  0.00  0.00    +0.227 C 
ATOM     34  O   PHE A  10       6.311  31.321  20.558  0.00  0.00    -0.286 OA
ENDBRANCH  32  33
BRANCH  32  35
ATOM     35  CB  PHE A  10       5.858  28.235  21.877  0.00  0.00    +0.054 C 
BRANCH  35  36
ATOM     36  CG  PHE A  10       4.572  28.959  22.131  0.00  0.00    -0.020 A 
ATOM     37  CD2 PHE A  10       4.498  29.929  23.121  0.00  0.00    -0.004 A 
ATOM     38  CE2 PHE A  10       3.311  30.666  23.335  0.00  0.00    -0.000 A 
ATOM     39  CZ  PHE A  10       2.194  30.378  22.576  0.00  0.00    -0.000 A 
ATOM     40  CE1 PHE A  10       2.271  29.386  21.583  0.00  0.00    -0.000 A 
ATOM     41  CD1 PHE A  10       3.459  28.701  21.372  0.00  0.00    -0.004 A 
ENDBRANCH  35  36
ENDBRANCH  32  35
ENDBRANCH  29  32
ENDBRANCH  27  28
BRANCH  27  42
ATOM     42  CB  MET A   9      10.637  27.074  19.544  0.00  0.00    +0.041 C 
BRANCH  42  43
ATOM     43  CG  MET A   9      10.402  27.501  18.114  0.00  0.00    +0.060 C 
BRANCH  43  44
ATOM     44  SD  MET A   9      10.137  26.215  16.913  0.00  0.00    -0.139 S 
ATOM     45  CE  MET A   9      11.724  25.268  17.157  0.00  0.00    +0.069 C 
ENDBRANCH  43  44
ENDBRANCH  42  43
ENDBRANCH  27  42
ENDBRANCH  25  27
ENDBRANCH  22  23
BRANCH  22  46
ATOM     46  CB  GLU A   8       9.053  27.656  24.797  0.00  0.00    +0.041 C 
BRANCH  46  47
ATOM     47  CG  GLU A   8       8.927  26.801  26.041  0.00  0.00    +0.116 C 
BRANCH  47  48
ATOM     48  CD  GLU A   8       7.579  26.933  26.669  0.00  0.00    +0.365 C 
ATOM     49  OE2 GLU A   8       7.363  26.469  27.808  0.00  0.00    -0.246 OA
ATOM     50  OE1 GLU A   8       6.723  27.504  26.002  0.00  0.00    -0.246 OA
ENDBRANCH  47  48
ENDBRANCH  46  47
ENDBRANCH  22  46
ENDBRANCH  19  22
ENDBRANCH  17  18
ENDBRANCH  14  17
ENDBRANCH  12  13
ENDBRANCH  10  12
ENDBRANCH   3   8
BRANCH   1  51
ATOM     51  CA  VAL A   4      17.609  25.342  28.949  0.00  0.00    +0.149 C 
BRANCH  51  54
ATOM     52  C   TYR A   3      18.451  24.541  31.092  0.00  0.00    +0.241 C 
ATOM     53  O   TYR A   3      19.623  24.693  30.742  0.00  0.00    -0.273 OA
ATOM     54  N   VAL A   4      17.414  24.855  30.311  0.00  0.00    -0.297 N 
ATOM     55  H   VAL A   4      16.448  24.750  30.681  0.00  0.00    +0.150 HD
BRANCH  52  56
ATOM     56  CA  TYR A   3      18.135  23.987  32.475  0.00  0.00    +0.153 C 
BRANCH  56  58
ATOM     57  C   GLU A   2      18.347  21.589  32.136  0.00  0.00    +0.241 C 
ATOM     58  N   TYR A   3      18.829  22.717  32.653  0.00  0.00    -0.297 N 
ATOM     59  H   TYR A   3      19.717  22.692  33.194  0.00  0.00    +0.150 HD
ATOM     60  O   GLU A   2      17.217  21.523  31.612  0.00  0.00    -0.273 OA
BRANCH  57  61
ATOM     61  CA  GLU A   2      19.251  20.342  32.225  0.00  0.00    +0.149 C 
BRANCH  61  64
ATOM     62  C   MET A   1      17.768  19.198  33.708  0.00  0.00    +0.238 C 
ATOM     63  O   MET A   1      17.813  20.099  34.501  0.00  0.00    -0.274 OA
ATOM     64  N   GLU A   2      18.455  19.214  32.587  0.00  0.00    -0.297 N 
ATOM     65  H   GLU A   2      18.418  18.390  31.953  0.00  0.00    +0.150 HD
BRANCH  62  66
ATOM     66  CA  MET A   1      16.761  18.073  33.865  0.00  0.00    +0.146 C 
BRANCH  66  67
ATOM     67  N   MET A   1      16.287  18.033  35.252  0.00  0.00    -0.238 NA
ATOM     68  H   MET A   1      15.740  18.850  35.591  0.00  0.00    +0.142 HD
ENDBRANCH  66  67
BRANCH  66  69
ATOM     69  CB  MET A   1      15.631  18.553  32.961  0.00  0.00    +0.038 C 
BRANCH  69  70
ATOM     70  CG  MET A   1      14.807  17.526  32.299  0.00  0.00    +0.060 C 
BRANCH  70  71
ATOM     71  SD  MET A   1      13.241  18.364  31.926  0.00  0.00    -0.139 S 
ATOM     72  CE  MET A   1      12.392  18.032  33.382  0.00  0.00    +0.069 C 
ENDBRANCH  70  71
ENDBRANCH  69  70
ENDBRANCH  66  69
ENDBRANCH  62  66
ENDBRANCH  61  64
BRANCH  61  73
ATOM     73  CB  GLU A   2      19.946  20.018  30.904  0.00  0.00    +0.041 C 
BRANCH  73  74
ATOM     74  CG  GLU A   2      20.618  21.187  30.218  0.00  0.00    +0.116 C 
BRANCH  74  75
ATOM     75  CD  GLU A   2      21.745  20.725  29.315  0.00  0.00    +0.365 C 
ATOM     76  OE2 GLU A   2      22.575  19.890  29.793  0.00  0.00    -0.246 OA
ATOM     77  OE1 GLU A   2      21.765  21.190  28.135  0.00  0.00    -0.246 OA
ENDBRANCH  74  75
ENDBRANCH  73  74
ENDBRANCH  61  73
ENDBRANCH  57  61
ENDBRANCH  56  58
BRANCH  56  78
ATOM     78  CB  TYR A   3      18.539  24.992  33.569  0.00  0.00    +0.055 C 
BRANCH  78  79
ATOM     79  CG  TYR A   3      17.991  26.398  33.381  0.00  0.00    -0.020 A 
ATOM     80  CD2 TYR A   3      18.817  27.527  33.573  0.00  0.00    -0.001 A 
ATOM     81  CE2 TYR A   3      18.328  28.852  33.364  0.00  0.00    +0.036 A 
ATOM     82  CZ  TYR A   3      16.991  29.006  32.979  0.00  0.00    +0.134 A 
ATOM     83  CE1 TYR A   3      16.156  27.893  32.783  0.00  0.00    +0.036 A 
ATOM     84  CD1 TYR A   3      16.654  26.610  32.993  0.00  0.00    -0.001 A 
BRANCH  82  85
ATOM     85  OH  TYR A   3      16.480  30.256  32.808  0.00  0.00    -0.506 OA
ATOM     86  HH  TYR A   3      16.548  30.758  33.658  0.00  0.00    +0.292 HD
ENDBRANCH  82  85
ENDBRANCH  78  79
ENDBRANCH  56  78
ENDBRANCH  52  56
ENDBRANCH  51  54
BRANCH  51  87
ATOM     87  CB  VAL A   4      16.877  24.488  27.893  0.00  0.00    +0.027 C 
ATOM     88  CG2 VAL A   4      17.088  22.993  28.138  0.00  0.00    +0.002 C 
ATOM     89  CG1 VAL A   4      17.369  24.851  26.534  0.00  0.00    +0.002 C 
ENDBRANCH  51  87
ENDBRANCH   1  51
TORSDOF 37
REMARK  Name = ../refined-set-2016/1xh4/1xh4_pocket.pdb
REMARK  269 active torsions:
REMARK  status: ('A' for Active; 'I' for Inactive)
REMARK    1  A    between atoms: _1  and  _3
REMARK    2  A    between atoms: _3  and  _4
REMARK    3  A    between atoms: _3  and  _6
REMARK    4  A    between atoms: _6  and  _7
REMARK    5  A    between atoms: _10  and  _12
REMARK    6  A    between atoms: _12  and  _13
REMARK    7  A    between atoms: _12  and  _15
REMARK    8  A    between atoms: _15  and  _16
REMARK    9  A    between atoms: _19  and  _21
REMARK   10  A    between atoms: _21  and  _22
REMARK   11  A    between atoms: _24  and  _26
REMARK   12  A    between atoms: _26  and  _27
REMARK   13  A    between atoms: _26  and  _29
REMARK   14  A    between atoms: _29  and  _30
REMARK   15  A    between atoms: _33  and  _35
REMARK   16  A    between atoms: _35  and  _36
REMARK   17  A    between atoms: _38  and  _40
REMARK   18  A    between atoms: _40  and  _41
REMARK   19  A    between atoms: _40  and  _43
REMARK   20  A    between atoms: _43  and  _44
REMARK   21  A    between atoms: _46  and  _48
REMARK   22  A    between atoms: _48  and  _49
REMARK   23  A    between atoms: _48  and  _51
REMARK   24  A    between atoms: _51  and  _52
REMARK   25  A    between atoms: _58  and  _60
REMARK   26  A    between atoms: _60  and  _61
REMARK   27  A    between atoms: _63  and  _65
REMARK   28  A    between atoms: _65  and  _66
REMARK   29  A    between atoms: _65  and  _68
REMARK   30  A    between atoms: _68  and  _69
REMARK   31  A    between atoms: _69  and  _70
REMARK   32  A    between atoms: _70  and  _71
REMARK   33  A    between atoms: _80  and  _82
REMARK   34  A    between atoms: _82  and  _83
REMARK   35  A    between atoms: _82  and  _85
REMARK   36  A    between atoms: _88  and  _90
REMARK   37  A    between atoms: _90  and  _91
REMARK   38  A    between atoms: _90  and  _93
REMARK   39  A    between atoms: _93  and  _94
REMARK   40  A    between atoms: _94  and  _95
REMARK   41  A    between atoms: _97  and  _99
REMARK   42  A    between atoms: _99  and  _100
REMARK   43  A    between atoms: _99  and  _102
REMARK   44  A    between atoms: _102  and  _103
REMARK   45  A    between atoms: _106  and  _108
REMARK   46  A    between atoms: _108  and  _109
REMARK   47  A    between atoms: _108  and  _111
REMARK   48  A    between atoms: _111  and  _112
REMARK   49  A    between atoms: _117  and  _118
REMARK   50  A    between atoms: _120  and  _122
REMARK   51  A    between atoms: _122  and  _123
REMARK   52  A    between atoms: _126  and  _128
REMARK   53  A    between atoms: _128  and  _129
REMARK   54  A    between atoms: _128  and  _131
REMARK   55  A    between atoms: _131  and  _132
REMARK   56  A    between atoms: _132  and  _133
REMARK   57  A    between atoms: _135  and  _137
REMARK   58  A    between atoms: _137  and  _138
REMARK   59  A    between atoms: _137  and  _140
REMARK   60  A    between atoms: _140  and  _141
REMARK   61  A    between atoms: _141  and  _142
REMARK   62  A    between atoms: _142  and  _143
REMARK   63  A    between atoms: _143  and  _144
REMARK   64  A    between atoms: _148  and  _150
REMARK   65  A    between atoms: _150  and  _151
REMARK   66  A    between atoms: _150  and  _153
REMARK   67  A    between atoms: _153  and  _154
REMARK   68  A    between atoms: _157  and  _159
REMARK   69  A    between atoms: _159  and  _160
REMARK   70  A    between atoms: _159  and  _162
REMARK   71  A    between atoms: _162  and  _163
REMARK   72  A    between atoms: _166  and  _168
REMARK   73  A    between atoms: _168  and  _169
REMARK   74  A    between atoms: _168  and  _171
REMARK   75  A    between atoms: _171  and  _172
REMARK   76  A    between atoms: _175  and  _177
REMARK   77  A    between atoms: _177  and  _178
REMARK   78  A    between atoms: _177  and  _180
REMARK   79  A    between atoms: _180  and  _181
REMARK   80  A    between atoms: _181  and  _182
REMARK   81  A    between atoms: _182  and  _183
REMARK   82  A    between atoms: _183  and  _184
REMARK   83  A    between atoms: _188  and  _190
REMARK   84  A    between atoms: _190  and  _191
REMARK   85  A    between atoms: _190  and  _193
REMARK   86  A    between atoms: _196  and  _198
REMARK   87  A    between atoms: _198  and  _199
REMARK   88  A    between atoms: _198  and  _201
REMARK   89  A    between atoms: _201  and  _202
REMARK   90  A    between atoms: _205  and  _207
REMARK   91  A    between atoms: _207  and  _208
REMARK   92  A    between atoms: _207  and  _210
REMARK   93  A    between atoms: _210  and  _211
REMARK   94  A    between atoms: _211  and  _212
REMARK   95  A    between atoms: _212  and  _213
REMARK   96  A    between atoms: _213  and  _214
REMARK   97  A    between atoms: _218  and  _220
REMARK   98  A    between atoms: _220  and  _221
REMARK   99  A    between atoms: _220  and  _223
REMARK  100  A    between atoms: _223  and  _224
REMARK  101  A    between atoms: _224  and  _225
REMARK  102  A    between atoms: _230  and  _232
REMARK  103  A    between atoms: _232  and  _233
REMARK  104  A    between atoms: _232  and  _235
REMARK  105  A    between atoms: _235  and  _236
REMARK  106  A    between atoms: _239  and  _241
REMARK  107  A    between atoms: _241  and  _242
REMARK  108  A    between atoms: _241  and  _244
REMARK  109  A    between atoms: _244  and  _245
REMARK  110  A    between atoms: _250  and  _252
REMARK  111  A    between atoms: _252  and  _253
REMARK  112  A    between atoms: _252  and  _255
REMARK  113  A    between atoms: _255  and  _256
REMARK  114  A    between atoms: _259  and  _261
REMARK  115  A    between atoms: _261  and  _262
REMARK  116  A    between atoms: _261  and  _264
REMARK  117  A    between atoms: _264  and  _265
REMARK  118  A    between atoms: _268  and  _270
REMARK  119  A    between atoms: _270  and  _271
REMARK  120  A    between atoms: _270  and  _273
REMARK  121  A    between atoms: _273  and  _274
REMARK  122  A    between atoms: _274  and  _275
REMARK  123  A    between atoms: _278  and  _280
REMARK  124  A    between atoms: _280  and  _281
REMARK  125  A    between atoms: _280  and  _283
REMARK  126  A    between atoms: _283  and  _284
REMARK  127  A    between atoms: _284  and  _285
REMARK  128  A    between atoms: _285  and  _286
REMARK  129  A    between atoms: _286  and  _287
REMARK  130  A    between atoms: _291  and  _293
REMARK  131  A    between atoms: _293  and  _294
REMARK  132  A    between atoms: _293  and  _296
REMARK  133  A    between atoms: _296  and  _297
REMARK  134  A    between atoms: _300  and  _302
REMARK  135  A    between atoms: _302  and  _303
REMARK  136  A    between atoms: _302  and  _305
REMARK  137  A    between atoms: _308  and  _310
REMARK  138  A    between atoms: _310  and  _311
REMARK  139  A    between atoms: _310  and  _313
REMARK  140  A    between atoms: _313  and  _314
REMARK  141  A    between atoms: _314  and  _315
REMARK  142  A    between atoms: _315  and  _316
REMARK  143  A    between atoms: _316  and  _317
REMARK  144  A    between atoms: _321  and  _323
REMARK  145  A    between atoms: _323  and  _324
REMARK  146  A    between atoms: _323  and  _326
REMARK  147  A    between atoms: _326  and  _327
REMARK  148  A    between atoms: _330  and  _332
REMARK  149  A    between atoms: _332  and  _333
REMARK  150  A    between atoms: _332  and  _335
REMARK  151  A    between atoms: _335  and  _336
REMARK  152  A    between atoms: _336  and  _337
REMARK  153  A    between atoms: _339  and  _341
REMARK  154  A    between atoms: _341  and  _342
REMARK  155  A    between atoms: _341  and  _344
REMARK  156  A    between atoms: _344  and  _345
REMARK  157  A    between atoms: _345  and  _346
REMARK  158  A    between atoms: _348  and  _350
REMARK  159  A    between atoms: _350  and  _351
REMARK  160  A    between atoms: _350  and  _353
REMARK  161  A    between atoms: _353  and  _354
REMARK  162  A    between atoms: _354  and  _355
REMARK  163  A    between atoms: _358  and  _360
REMARK  164  A    between atoms: _360  and  _361
REMARK  165  A    between atoms: _360  and  _363
REMARK  166  A    between atoms: _363  and  _364
REMARK  167  A    between atoms: _369  and  _370
REMARK  168  A    between atoms: _372  and  _374
REMARK  169  A    between atoms: _374  and  _375
REMARK  170  A    between atoms: _374  and  _377
REMARK  171  A    between atoms: _381  and  _382
REMARK  172  A    between atoms: _387  and  _389
REMARK  173  A    between atoms: _389  and  _390
REMARK  174  A    between atoms: _392  and  _394
REMARK  175  A    between atoms: _394  and  _395
REMARK  176  A    between atoms: _397  and  _399
REMARK  177  A    between atoms: _399  and  _400
REMARK  178  A    between atoms: _399  and  _402
REMARK  179  A    between atoms: _402  and  _403
REMARK  180  A    between atoms: _403  and  _404
REMARK  181  A    between atoms: _407  and  _409
REMARK  182  A    between atoms: _409  and  _410
REMARK  183  A    between atoms: _409  and  _412
REMARK  184  A    between atoms: _412  and  _413
REMARK  185  A    between atoms: _413  and  _414
REMARK  186  A    between atoms: _416  and  _418
REMARK  187  A    between atoms: _418  and  _419
REMARK  188  A    between atoms: _418  and  _421
REMARK  189  A    between atoms: _421  and  _422
REMARK  190  A    between atoms: _428  and  _430
REMARK  191  A    between atoms: _430  and  _431
REMARK  192  A    between atoms: _430  and  _433
REMARK  193  A    between atoms: _433  and  _434
REMARK  194  A    between atoms: _439  and  _440
REMARK  195  A    between atoms: _442  and  _444
REMARK  196  A    between atoms: _444  and  _445
REMARK  197  A    between atoms: _444  and  _447
REMARK  198  A    between atoms: _447  and  _448
REMARK  199  A    between atoms: _451  and  _453
REMARK  200  A    between atoms: _453  and  _454
REMARK  201  A    between atoms: _453  and  _456
REMARK  202  A    between atoms: _456  and  _457
REMARK  203  A    between atoms: _457  and  _458
REMARK  204  A    between atoms: _458  and  _459
REMARK  205  A    between atoms: _459  and  _460
REMARK  206  A    between atoms: _465  and  _466
REMARK  207  A    between atoms: _471  and  _473
REMARK  208  A    between atoms: _473  and  _474
REMARK  209  A    between atoms: _473  and  _476
REMARK  210  A    between atoms: _476  and  _477
REMARK  211  A    between atoms: _477  and  _478
REMARK  212  A    between atoms: _481  and  _483
REMARK  213  A    between atoms: _483  and  _484
REMARK  214  A    between atoms: _483  and  _486
REMARK  215  A    between atoms: _486  and  _487
REMARK  216  A    between atoms: _492  and  _494
REMARK  217  A    between atoms: _494  and  _495
REMARK  218  A    between atoms: _494  and  _497
REMARK  219  A    between atoms: _497  and  _498
REMARK  220  A    between atoms: _501  and  _503
REMARK  221  A    between atoms: _503  and  _504
REMARK  222  A    between atoms: _503  and  _506
REMARK  223  A    between atoms: _506  and  _507
REMARK  224  A    between atoms: _510  and  _512
REMARK  225  A    between atoms: _512  and  _513
REMARK  226  A    between atoms: _512  and  _515
REMARK  227  A    between atoms: _515  and  _516
REMARK  228  A    between atoms: _519  and  _521
REMARK  229  A    between atoms: _521  and  _522
REMARK  230  A    between atoms: _521  and  _524
REMARK  231  A    between atoms: _524  and  _525
REMARK  232  A    between atoms: _525  and  _526
REMARK  233  A    between atoms: _531  and  _533
REMARK  234  A    between atoms: _533  and  _534
REMARK  235  A    between atoms: _533  and  _536
REMARK  236  A    between atoms: _539  and  _541
REMARK  237  A    between atoms: _541  and  _542
REMARK  238  A    between atoms: _541  and  _544
REMARK  239  A    between atoms: _544  and  _545
REMARK  240  A    between atoms: _548  and  _550
REMARK  241  A    between atoms: _550  and  _551
REMARK  242  A    between atoms: _550  and  _553
REMARK  243  A    between atoms: _553  and  _554
REMARK  244  A    between atoms: _557  and  _559
REMARK  245  A    between atoms: _559  and  _560
REMARK  246  A    between atoms: _559  and  _562
REMARK  247  A    between atoms: _562  and  _563
REMARK  248  A    between atoms: _569  and  _571
REMARK  249  A    between atoms: _571  and  _572
REMARK  250  A    between atoms: _574  and  _576
REMARK  251  A    between atoms: _576  and  _577
REMARK  252  A    between atoms: _576  and  _579
REMARK  253  A    between atoms: _579  and  _580
REMARK  254  A    between atoms: _586  and  _588
REMARK  255  A    between atoms: _588  and  _589
REMARK  256  A    between atoms: _592  and  _594
REMARK  257  A    between atoms: _594  and  _595
REMARK  258  A    between atoms: _594  and  _597
REMARK  259  A    between atoms: _599  and  _601
REMARK  260  A    between atoms: _601  and  _602
REMARK  261  A    between atoms: _604  and  _606
REMARK  262  A    between atoms: _606  and  _607
REMARK  263  A    between atoms: _606  and  _609
REMARK  264  A    between atoms: _609  and  _610
REMARK  265  A    between atoms: _616  and  _618
REMARK  266  A    between atoms: _618  and  _619
REMARK  267  A    between atoms: _618  and  _621
REMARK  268  A    between atoms: _621  and  _622
REMARK  269  A    between atoms: _627  and  _628
REMARK                            x       y       z     vdW  Elec       q    Type
REMARK                         _______ _______ _______ _____ _____    ______ ____
ROOT
ATOM      1  CG  TYR A   1       8.313  13.550  20.931  0.00  0.00    -0.020 A 
ATOM      2  CD2 TYR A   1       8.724  13.561  22.275  0.00  0.00    -0.001 A 
ATOM      3  CE2 TYR A   1       8.642  14.729  23.042  0.00  0.00    +0.036 A 
ATOM      4  CZ  TYR A   1       8.160  15.883  22.450  0.00  0.00    +0.134 A 
ATOM      5  CE1 TYR A   1       7.741  15.878  21.147  0.00  0.00    +0.036 A 
ATOM      6  CD1 TYR A   1       7.809  14.714  20.399  0.00  0.00    -0.001 A 
ENDROOT
BRANCH   4   7
ATOM      7  OH  TYR A   1       8.058  17.053  23.132  0.00  0.00    -0.506 OA
ATOM      8  HH  TYR A   1       8.391  16.925  24.056  0.00  0.00    +0.292 HD
ENDBRANCH   4   7
BRANCH   1   9
ATOM      9  CB  TYR A   1       8.362  12.270  20.095  0.00  0.00    +0.051 C 
BRANCH   9  10
ATOM     10  CA  TYR A   1       7.464  11.145  20.641  0.00  0.00    +0.137 C 
BRANCH  10  11
ATOM     11  N   TYR A   1       7.513   9.966  19.793  0.00  0.00    -0.239 NA
ATOM     12  H   TYR A   1       7.665  10.098  18.773  0.00  0.00    +0.142 HD
ENDBRANCH  10  11
BRANCH  10  13
ATOM     13  C   TYR A   1       6.025  11.637  20.860  0.00  0.00    +0.224 C 
ATOM     14  O   TYR A   1       5.628  11.800  21.999  0.00  0.00    -0.287 OA
ENDBRANCH  10  13
ENDBRANCH   9  10
ENDBRANCH   1   9
TORSDOF 5
REMARK  Name = ../refined-set-2016/1xh4/1xh4_pocket.pdb
REMARK  269 active torsions:
REMARK  status: ('A' for Active; 'I' for Inactive)
REMARK    1  A    between atoms: _1  and  _3
REMARK    2  A    between atoms: _3  and  _4
REMARK    3  A    between atoms: _3  and  _6
REMARK    4  A    between atoms: _6  and  _7
REMARK    5  A    between atoms: _10  and  _12
REMARK    6  A    between atoms: _12  and  _13
REMARK    7  A    between atoms: _12  and  _15
REMARK    8  A    between atoms: _15  and  _16
REMARK    9  A    between atoms: _19  and  _21
REMARK   10  A    between atoms: _21  and  _22
REMARK   11  A    between atoms: _24  and  _26
REMARK   12  A    between atoms: _26  and  _27
REMARK   13  A    between atoms: _26  and  _29
REMARK   14  A    between atoms: _29  and  _30
REMARK   15  A    between atoms: _33  and  _35
REMARK   16  A    between atoms: _35  and  _36
REMARK   17  A    between atoms: _38  and  _40
REMARK   18  A    between atoms: _40  and  _41
REMARK   19  A    between atoms: _40  and  _43
REMARK   20  A    between atoms: _43  and  _44
REMARK   21  A    between atoms: _46  and  _48
REMARK   22  A    between atoms: _48  and  _49
REMARK   23  A    between atoms: _48  and  _51
REMARK   24  A    between atoms: _51  and  _52
REMARK   25  A    between atoms: _58  and  _60
REMARK   26  A    between atoms: _60  and  _61
REMARK   27  A    between atoms: _63  and  _65
REMARK   28  A    between atoms: _65  and  _66
REMARK   29  A    between atoms: _65  and  _68
REMARK   30  A    between atoms: _68  and  _69
REMARK   31  A    between atoms: _69  and  _70
REMARK   32  A    between atoms: _70  and  _71
REMARK   33  A    between atoms: _80  and  _82
REMARK   34  A    between atoms: _82  and  _83
REMARK   35  A    between atoms: _82  and  _85
REMARK   36  A    between atoms: _88  and  _90
REMARK   37  A    between atoms: _90  and  _91
REMARK   38  A    between atoms: _90  and  _93
REMARK   39  A    between atoms: _93  and  _94
REMARK   40  A    between atoms: _94  and  _95
REMARK   41  A    between atoms: _97  and  _99
REMARK   42  A    between atoms: _99  and  _100
REMARK   43  A    between atoms: _99  and  _102
REMARK   44  A    between atoms: _102  and  _103
REMARK   45  A    between atoms: _106  and  _108
REMARK   46  A    between atoms: _108  and  _109
REMARK   47  A    between atoms: _108  and  _111
REMARK   48  A    between atoms: _111  and  _112
REMARK   49  A    between atoms: _117  and  _118
REMARK   50  A    between atoms: _120  and  _122
REMARK   51  A    between atoms: _122  and  _123
REMARK   52  A    between atoms: _126  and  _128
REMARK   53  A    between atoms: _128  and  _129
REMARK   54  A    between atoms: _128  and  _131
REMARK   55  A    between atoms: _131  and  _132
REMARK   56  A    between atoms: _132  and  _133
REMARK   57  A    between atoms: _135  and  _137
REMARK   58  A    between atoms: _137  and  _138
REMARK   59  A    between atoms: _137  and  _140
REMARK   60  A    between atoms: _140  and  _141
REMARK   61  A    between atoms: _141  and  _142
REMARK   62  A    between atoms: _142  and  _143
REMARK   63  A    between atoms: _143  and  _144
REMARK   64  A    between atoms: _148  and  _150
REMARK   65  A    between atoms: _150  and  _151
REMARK   66  A    between atoms: _150  and  _153
REMARK   67  A    between atoms: _153  and  _154
REMARK   68  A    between atoms: _157  and  _159
REMARK   69  A    between atoms: _159  and  _160
REMARK   70  A    between atoms: _159  and  _162
REMARK   71  A    between atoms: _162  and  _163
REMARK   72  A    between atoms: _166  and  _168
REMARK   73  A    between atoms: _168  and  _169
REMARK   74  A    between atoms: _168  and  _171
REMARK   75  A    between atoms: _171  and  _172
REMARK   76  A    between atoms: _175  and  _177
REMARK   77  A    between atoms: _177  and  _178
REMARK   78  A    between atoms: _177  and  _180
REMARK   79  A    between atoms: _180  and  _181
REMARK   80  A    between atoms: _181  and  _182
REMARK   81  A    between atoms: _182  and  _183
REMARK   82  A    between atoms: _183  and  _184
REMARK   83  A    between atoms: _188  and  _190
REMARK   84  A    between atoms: _190  and  _191
REMARK   85  A    between atoms: _190  and  _193
REMARK   86  A    between atoms: _196  and  _198
REMARK   87  A    between atoms: _198  and  _199
REMARK   88  A    between atoms: _198  and  _201
REMARK   89  A    between atoms: _201  and  _202
REMARK   90  A    between atoms: _205  and  _207
REMARK   91  A    between atoms: _207  and  _208
REMARK   92  A    between atoms: _207  and  _210
REMARK   93  A    between atoms: _210  and  _211
REMARK   94  A    between atoms: _211  and  _212
REMARK   95  A    between atoms: _212  and  _213
REMARK   96  A    between atoms: _213  and  _214
REMARK   97  A    between atoms: _218  and  _220
REMARK   98  A    between atoms: _220  and  _221
REMARK   99  A    between atoms: _220  and  _223
REMARK  100  A    between atoms: _223  and  _224
REMARK  101  A    between atoms: _224  and  _225
REMARK  102  A    between atoms: _230  and  _232
REMARK  103  A    between atoms: _232  and  _233
REMARK  104  A    between atoms: _232  and  _235
REMARK  105  A    between atoms: _235  and  _236
REMARK  106  A    between atoms: _239  and  _241
REMARK  107  A    between atoms: _241  and  _242
REMARK  108  A    between atoms: _241  and  _244
REMARK  109  A    between atoms: _244  and  _245
REMARK  110  A    between atoms: _250  and  _252
REMARK  111  A    between atoms: _252  and  _253
REMARK  112  A    between atoms: _252  and  _255
REMARK  113  A    between atoms: _255  and  _256
REMARK  114  A    between atoms: _259  and  _261
REMARK  115  A    between atoms: _261  and  _262
REMARK  116  A    between atoms: _261  and  _264
REMARK  117  A    between atoms: _264  and  _265
REMARK  118  A    between atoms: _268  and  _270
REMARK  119  A    between atoms: _270  and  _271
REMARK  120  A    between atoms: _270  and  _273
REMARK  121  A    between atoms: _273  and  _274
REMARK  122  A    between atoms: _274  and  _275
REMARK  123  A    between atoms: _278  and  _280
REMARK  124  A    between atoms: _280  and  _281
REMARK  125  A    between atoms: _280  and  _283
REMARK  126  A    between atoms: _283  and  _284
REMARK  127  A    between atoms: _284  and  _285
REMARK  128  A    between atoms: _285  and  _286
REMARK  129  A    between atoms: _286  and  _287
REMARK  130  A    between atoms: _291  and  _293
REMARK  131  A    between atoms: _293  and  _294
REMARK  132  A    between atoms: _293  and  _296
REMARK  133  A    between atoms: _296  and  _297
REMARK  134  A    between atoms: _300  and  _302
REMARK  135  A    between atoms: _302  and  _303
REMARK  136  A    between atoms: _302  and  _305
REMARK  137  A    between atoms: _308  and  _310
REMARK  138  A    between atoms: _310  and  _311
REMARK  139  A    between atoms: _310  and  _313
REMARK  140  A    between atoms: _313  and  _314
REMARK  141  A    between atoms: _314  and  _315
REMARK  142  A    between atoms: _315  and  _316
REMARK  143  A    between atoms: _316  and  _317
REMARK  144  A    between atoms: _321  and  _323
REMARK  145  A    between atoms: _323  and  _324
REMARK  146  A    between atoms: _323  and  _326
REMARK  147  A    between atoms: _326  and  _327
REMARK  148  A    between atoms: _330  and  _332
REMARK  149  A    between atoms: _332  and  _333
REMARK  150  A    between atoms: _332  and  _335
REMARK  151  A    between atoms: _335  and  _336
REMARK  152  A    between atoms: _336  and  _337
REMARK  153  A    between atoms: _339  and  _341
REMARK  154  A    between atoms: _341  and  _342
REMARK  155  A    between atoms: _341  and  _344
REMARK  156  A    between atoms: _344  and  _345
REMARK  157  A    between atoms: _345  and  _346
REMARK  158  A    between atoms: _348  and  _350
REMARK  159  A    between atoms: _350  and  _351
REMARK  160  A    between atoms: _350  and  _353
REMARK  161  A    between atoms: _353  and  _354
REMARK  162  A    between atoms: _354  and  _355
REMARK  163  A    between atoms: _358  and  _360
REMARK  164  A    between atoms: _360  and  _361
REMARK  165  A    between atoms: _360  and  _363
REMARK  166  A    between atoms: _363  and  _364
REMARK  167  A    between atoms: _369  and  _370
REMARK  168  A    between atoms: _372  and  _374
REMARK  169  A    between atoms: _374  and  _375
REMARK  170  A    between atoms: _374  and  _377
REMARK  171  A    between atoms: _381  and  _382
REMARK  172  A    between atoms: _387  and  _389
REMARK  173  A    between atoms: _389  and  _390
REMARK  174  A    between atoms: _392  and  _394
REMARK  175  A    between atoms: _394  and  _395
REMARK  176  A    between atoms: _397  and  _399
REMARK  177  A    between atoms: _399  and  _400
REMARK  178  A    between atoms: _399  and  _402
REMARK  179  A    between atoms: _402  and  _403
REMARK  180  A    between atoms: _403  and  _404
REMARK  181  A    between atoms: _407  and  _409
REMARK  182  A    between atoms: _409  and  _410
REMARK  183  A    between atoms: _409  and  _412
REMARK  184  A    between atoms: _412  and  _413
REMARK  185  A    between atoms: _413  and  _414
REMARK  186  A    between atoms: _416  and  _418
REMARK  187  A    between atoms: _418  and  _419
REMARK  188  A    between atoms: _418  and  _421
REMARK  189  A    between atoms: _421  and  _422
REMARK  190  A    between atoms: _428  and  _430
REMARK  191  A    between atoms: _430  and  _431
REMARK  192  A    between atoms: _430  and  _433
REMARK  193  A    between atoms: _433  and  _434
REMARK  194  A    between atoms: _439  and  _440
REMARK  195  A    between atoms: _442  and  _444
REMARK  196  A    between atoms: _444  and  _445
REMARK  197  A    between atoms: _444  and  _447
REMARK  198  A    between atoms: _447  and  _448
REMARK  199  A    between atoms: _451  and  _453
REMARK  200  A    between atoms: _453  and  _454
REMARK  201  A    between atoms: _453  and  _456
REMARK  202  A    between atoms: _456  and  _457
REMARK  203  A    between atoms: _457  and  _458
REMARK  204  A    between atoms: _458  and  _459
REMARK  205  A    between atoms: _459  and  _460
REMARK  206  A    between atoms: _465  and  _466
REMARK  207  A    between atoms: _471  and  _473
REMARK  208  A    between atoms: _473  and  _474
REMARK  209  A    between atoms: _473  and  _476
REMARK  210  A    between atoms: _476  and  _477
REMARK  211  A    between atoms: _477  and  _478
REMARK  212  A    between atoms: _481  and  _483
REMARK  213  A    between atoms: _483  and  _484
REMARK  214  A    between atoms: _483  and  _486
REMARK  215  A    between atoms: _486  and  _487
REMARK  216  A    between atoms: _492  and  _494
REMARK  217  A    between atoms: _494  and  _495
REMARK  218  A    between atoms: _494  and  _497
REMARK  219  A    between atoms: _497  and  _498
REMARK  220  A    between atoms: _501  and  _503
REMARK  221  A    between atoms: _503  and  _504
REMARK  222  A    between atoms: _503  and  _506
REMARK  223  A    between atoms: _506  and  _507
REMARK  224  A    between atoms: _510  and  _512
REMARK  225  A    between atoms: _512  and  _513
REMARK  226  A    between atoms: _512  and  _515
REMARK  227  A    between atoms: _515  and  _516
REMARK  228  A    between atoms: _519  and  _521
REMARK  229  A    between atoms: _521  and  _522
REMARK  230  A    between atoms: _521  and  _524
REMARK  231  A    between atoms: _524  and  _525
REMARK  232  A    between atoms: _525  and  _526
REMARK  233  A    between atoms: _531  and  _533
REMARK  234  A    between atoms: _533  and  _534
REMARK  235  A    between atoms: _533  and  _536
REMARK  236  A    between atoms: _539  and  _541
REMARK  237  A    between atoms: _541  and  _542
REMARK  238  A    between atoms: _541  and  _544
REMARK  239  A    between atoms: _544  and  _545
REMARK  240  A    between atoms: _548  and  _550
REMARK  241  A    between atoms: _550  and  _551
REMARK  242  A    between atoms: _550  and  _553
REMARK  243  A    between atoms: _553  and  _554
REMARK  244  A    between atoms: _557  and  _559
REMARK  245  A    between atoms: _559  and  _560
REMARK  246  A    between atoms: _559  and  _562
REMARK  247  A    between atoms: _562  and  _563
REMARK  248  A    between atoms: _569  and  _571
REMARK  249  A    between atoms: _571  and  _572
REMARK  250  A    between atoms: _574  and  _576
REMARK  251  A    between atoms: _576  and  _577
REMARK  252  A    between atoms: _576  and  _579
REMARK  253  A    between atoms: _579  and  _580
REMARK  254  A    between atoms: _586  and  _588
REMARK  255  A    between atoms: _588  and  _589
REMARK  256  A    between atoms: _592  and  _594
REMARK  257  A    between atoms: _594  and  _595
REMARK  258  A    between atoms: _594  and  _597
REMARK  259  A    between atoms: _599  and  _601
REMARK  260  A    between atoms: _601  and  _602
REMARK  261  A    between atoms: _604  and  _606
REMARK  262  A    between atoms: _606  and  _607
REMARK  263  A    between atoms: _606  and  _609
REMARK  264  A    between atoms: _609  and  _610
REMARK  265  A    between atoms: _616  and  _618
REMARK  266  A    between atoms: _618  and  _619
REMARK  267  A    between atoms: _618  and  _621
REMARK  268  A    between atoms: _621  and  _622
REMARK  269  A    between atoms: _627  and  _628
REMARK                            x       y       z     vdW  Elec       q    Type
REMARK                         _______ _______ _______ _____ _____    ______ ____
ROOT
ATOM      1  CA  ASP A   1       3.796  15.730  21.045  0.00  0.00    +0.144 C 
ENDROOT
BRANCH   1   2
ATOM      2  N   ASP A   1       4.274  14.426  20.593  0.00  0.00    -0.239 NA
ATOM      3  H   ASP A   1       5.284  14.254  20.417  0.00  0.00    +0.142 HD
ENDBRANCH   1   2
BRANCH   1   4
ATOM      4  C   ASP A   1       4.732  16.863  20.631  0.00  0.00    +0.225 C 
ATOM      5  O   ASP A   1       5.060  17.714  21.450  0.00  0.00    -0.287 OA
ENDBRANCH   1   4
BRANCH   1   6
ATOM      6  CB  ASP A   1       3.506  15.730  22.555  0.00  0.00    +0.139 C 
BRANCH   6   7
ATOM      7  CG  ASP A   1       2.758  16.956  23.004  0.00  0.00    +0.367 C 
ATOM      8  OD2 ASP A   1       2.940  17.471  24.121  0.00  0.00    -0.246 OA
ATOM      9  OD1 ASP A   1       1.936  17.503  22.223  0.00  0.00    -0.246 OA
ENDBRANCH   6   7
ENDBRANCH   1   6
TORSDOF 4
REMARK  Name = ../refined-set-2016/1xh4/1xh4_pocket.pdb
REMARK  269 active torsions:
REMARK  status: ('A' for Active; 'I' for Inactive)
REMARK    1  A    between atoms: _1  and  _3
REMARK    2  A    between atoms: _3  and  _4
REMARK    3  A    between atoms: _3  and  _6
REMARK    4  A    between atoms: _6  and  _7
REMARK    5  A    between atoms: _10  and  _12
REMARK    6  A    between atoms: _12  and  _13
REMARK    7  A    between atoms: _12  and  _15
REMARK    8  A    between atoms: _15  and  _16
REMARK    9  A    between atoms: _19  and  _21
REMARK   10  A    between atoms: _21  and  _22
REMARK   11  A    between atoms: _24  and  _26
REMARK   12  A    between atoms: _26  and  _27
REMARK   13  A    between atoms: _26  and  _29
REMARK   14  A    between atoms: _29  and  _30
REMARK   15  A    between atoms: _33  and  _35
REMARK   16  A    between atoms: _35  and  _36
REMARK   17  A    between atoms: _38  and  _40
REMARK   18  A    between atoms: _40  and  _41
REMARK   19  A    between atoms: _40  and  _43
REMARK   20  A    between atoms: _43  and  _44
REMARK   21  A    between atoms: _46  and  _48
REMARK   22  A    between atoms: _48  and  _49
REMARK   23  A    between atoms: _48  and  _51
REMARK   24  A    between atoms: _51  and  _52
REMARK   25  A    between atoms: _58  and  _60
REMARK   26  A    between atoms: _60  and  _61
REMARK   27  A    between atoms: _63  and  _65
REMARK   28  A    between atoms: _65  and  _66
REMARK   29  A    between atoms: _65  and  _68
REMARK   30  A    between atoms: _68  and  _69
REMARK   31  A    between atoms: _69  and  _70
REMARK   32  A    between atoms: _70  and  _71
REMARK   33  A    between atoms: _80  and  _82
REMARK   34  A    between atoms: _82  and  _83
REMARK   35  A    between atoms: _82  and  _85
REMARK   36  A    between atoms: _88  and  _90
REMARK   37  A    between atoms: _90  and  _91
REMARK   38  A    between atoms: _90  and  _93
REMARK   39  A    between atoms: _93  and  _94
REMARK   40  A    between atoms: _94  and  _95
REMARK   41  A    between atoms: _97  and  _99
REMARK   42  A    between atoms: _99  and  _100
REMARK   43  A    between atoms: _99  and  _102
REMARK   44  A    between atoms: _102  and  _103
REMARK   45  A    between atoms: _106  and  _108
REMARK   46  A    between atoms: _108  and  _109
REMARK   47  A    between atoms: _108  and  _111
REMARK   48  A    between atoms: _111  and  _112
REMARK   49  A    between atoms: _117  and  _118
REMARK   50  A    between atoms: _120  and  _122
REMARK   51  A    between atoms: _122  and  _123
REMARK   52  A    between atoms: _126  and  _128
REMARK   53  A    between atoms: _128  and  _129
REMARK   54  A    between atoms: _128  and  _131
REMARK   55  A    between atoms: _131  and  _132
REMARK   56  A    between atoms: _132  and  _133
REMARK   57  A    between atoms: _135  and  _137
REMARK   58  A    between atoms: _137  and  _138
REMARK   59  A    between atoms: _137  and  _140
REMARK   60  A    between atoms: _140  and  _141
REMARK   61  A    between atoms: _141  and  _142
REMARK   62  A    between atoms: _142  and  _143
REMARK   63  A    between atoms: _143  and  _144
REMARK   64  A    between atoms: _148  and  _150
REMARK   65  A    between atoms: _150  and  _151
REMARK   66  A    between atoms: _150  and  _153
REMARK   67  A    between atoms: _153  and  _154
REMARK   68  A    between atoms: _157  and  _159
REMARK   69  A    between atoms: _159  and  _160
REMARK   70  A    between atoms: _159  and  _162
REMARK   71  A    between atoms: _162  and  _163
REMARK   72  A    between atoms: _166  and  _168
REMARK   73  A    between atoms: _168  and  _169
REMARK   74  A    between atoms: _168  and  _171
REMARK   75  A    between atoms: _171  and  _172
REMARK   76  A    between atoms: _175  and  _177
REMARK   77  A    between atoms: _177  and  _178
REMARK   78  A    between atoms: _177  and  _180
REMARK   79  A    between atoms: _180  and  _181
REMARK   80  A    between atoms: _181  and  _182
REMARK   81  A    between atoms: _182  and  _183
REMARK   82  A    between atoms: _183  and  _184
REMARK   83  A    between atoms: _188  and  _190
REMARK   84  A    between atoms: _190  and  _191
REMARK   85  A    between atoms: _190  and  _193
REMARK   86  A    between atoms: _196  and  _198
REMARK   87  A    between atoms: _198  and  _199
REMARK   88  A    between atoms: _198  and  _201
REMARK   89  A    between atoms: _201  and  _202
REMARK   90  A    between atoms: _205  and  _207
REMARK   91  A    between atoms: _207  and  _208
REMARK   92  A    between atoms: _207  and  _210
REMARK   93  A    between atoms: _210  and  _211
REMARK   94  A    between atoms: _211  and  _212
REMARK   95  A    between atoms: _212  and  _213
REMARK   96  A    between atoms: _213  and  _214
REMARK   97  A    between atoms: _218  and  _220
REMARK   98  A    between atoms: _220  and  _221
REMARK   99  A    between atoms: _220  and  _223
REMARK  100  A    between atoms: _223  and  _224
REMARK  101  A    between atoms: _224  and  _225
REMARK  102  A    between atoms: _230  and  _232
REMARK  103  A    between atoms: _232  and  _233
REMARK  104  A    between atoms: _232  and  _235
REMARK  105  A    between atoms: _235  and  _236
REMARK  106  A    between atoms: _239  and  _241
REMARK  107  A    between atoms: _241  and  _242
REMARK  108  A    between atoms: _241  and  _244
REMARK  109  A    between atoms: _244  and  _245
REMARK  110  A    between atoms: _250  and  _252
REMARK  111  A    between atoms: _252  and  _253
REMARK  112  A    between atoms: _252  and  _255
REMARK  113  A    between atoms: _255  and  _256
REMARK  114  A    between atoms: _259  and  _261
REMARK  115  A    between atoms: _261  and  _262
REMARK  116  A    between atoms: _261  and  _264
REMARK  117  A    between atoms: _264  and  _265
REMARK  118  A    between atoms: _268  and  _270
REMARK  119  A    between atoms: _270  and  _271
REMARK  120  A    between atoms: _270  and  _273
REMARK  121  A    between atoms: _273  and  _274
REMARK  122  A    between atoms: _274  and  _275
REMARK  123  A    between atoms: _278  and  _280
REMARK  124  A    between atoms: _280  and  _281
REMARK  125  A    between atoms: _280  and  _283
REMARK  126  A    between atoms: _283  and  _284
REMARK  127  A    between atoms: _284  and  _285
REMARK  128  A    between atoms: _285  and  _286
REMARK  129  A    between atoms: _286  and  _287
REMARK  130  A    between atoms: _291  and  _293
REMARK  131  A    between atoms: _293  and  _294
REMARK  132  A    between atoms: _293  and  _296
REMARK  133  A    between atoms: _296  and  _297
REMARK  134  A    between atoms: _300  and  _302
REMARK  135  A    between atoms: _302  and  _303
REMARK  136  A    between atoms: _302  and  _305
REMARK  137  A    between atoms: _308  and  _310
REMARK  138  A    between atoms: _310  and  _311
REMARK  139  A    between atoms: _310  and  _313
REMARK  140  A    between atoms: _313  and  _314
REMARK  141  A    between atoms: _314  and  _315
REMARK  142  A    between atoms: _315  and  _316
REMARK  143  A    between atoms: _316  and  _317
REMARK  144  A    between atoms: _321  and  _323
REMARK  145  A    between atoms: _323  and  _324
REMARK  146  A    between atoms: _323  and  _326
REMARK  147  A    between atoms: _326  and  _327
REMARK  148  A    between atoms: _330  and  _332
REMARK  149  A    between atoms: _332  and  _333
REMARK  150  A    between atoms: _332  and  _335
REMARK  151  A    between atoms: _335  and  _336
REMARK  152  A    between atoms: _336  and  _337
REMARK  153  A    between atoms: _339  and  _341
REMARK  154  A    between atoms: _341  and  _342
REMARK  155  A    between atoms: _341  and  _344
REMARK  156  A    between atoms: _344  and  _345
REMARK  157  A    between atoms: _345  and  _346
REMARK  158  A    between atoms: _348  and  _350
REMARK  159  A    between atoms: _350  and  _351
REMARK  160  A    between atoms: _350  and  _353
REMARK  161  A    between atoms: _353  and  _354
REMARK  162  A    between atoms: _354  and  _355
REMARK  163  A    between atoms: _358  and  _360
REMARK  164  A    between atoms: _360  and  _361
REMARK  165  A    between atoms: _360  and  _363
REMARK  166  A    between atoms: _363  and  _364
REMARK  167  A    between atoms: _369  and  _370
REMARK  168  A    between atoms: _372  and  _374
REMARK  169  A    between atoms: _374  and  _375
REMARK  170  A    between atoms: _374  and  _377
REMARK  171  A    between atoms: _381  and  _382
REMARK  172  A    between atoms: _387  and  _389
REMARK  173  A    between atoms: _389  and  _390
REMARK  174  A    between atoms: _392  and  _394
REMARK  175  A    between atoms: _394  and  _395
REMARK  176  A    between atoms: _397  and  _399
REMARK  177  A    between atoms: _399  and  _400
REMARK  178  A    between atoms: _399  and  _402
REMARK  179  A    between atoms: _402  and  _403
REMARK  180  A    between atoms: _403  and  _404
REMARK  181  A    between atoms: _407  and  _409
REMARK  182  A    between atoms: _409  and  _410
REMARK  183  A    between atoms: _409  and  _412
REMARK  184  A    between atoms: _412  and  _413
REMARK  185  A    between atoms: _413  and  _414
REMARK  186  A    between atoms: _416  and  _418
REMARK  187  A    between atoms: _418  and  _419
REMARK  188  A    between atoms: _418  and  _421
REMARK  189  A    between atoms: _421  and  _422
REMARK  190  A    between atoms: _428  and  _430
REMARK  191  A    between atoms: _430  and  _431
REMARK  192  A    between atoms: _430  and  _433
REMARK  193  A    between atoms: _433  and  _434
REMARK  194  A    between atoms: _439  and  _440
REMARK  195  A    between atoms: _442  and  _444
REMARK  196  A    between atoms: _444  and  _445
REMARK  197  A    between atoms: _444  and  _447
REMARK  198  A    between atoms: _447  and  _448
REMARK  199  A    between atoms: _451  and  _453
REMARK  200  A    between atoms: _453  and  _454
REMARK  201  A    between atoms: _453  and  _456
REMARK  202  A    between atoms: _456  and  _457
REMARK  203  A    between atoms: _457  and  _458
REMARK  204  A    between atoms: _458  and  _459
REMARK  205  A    between atoms: _459  and  _460
REMARK  206  A    between atoms: _465  and  _466
REMARK  207  A    between atoms: _471  and  _473
REMARK  208  A    between atoms: _473  and  _474
REMARK  209  A    between atoms: _473  and  _476
REMARK  210  A    between atoms: _476  and  _477
REMARK  211  A    between atoms: _477  and  _478
REMARK  212  A    between atoms: _481  and  _483
REMARK  213  A    between atoms: _483  and  _484
REMARK  214  A    between atoms: _483  and  _486
REMARK  215  A    between atoms: _486  and  _487
REMARK  216  A    between atoms: _492  and  _494
REMARK  217  A    between atoms: _494  and  _495
REMARK  218  A    between atoms: _494  and  _497
REMARK  219  A    between atoms: _497  and  _498
REMARK  220  A    between atoms: _501  and  _503
REMARK  221  A    between atoms: _503  and  _504
REMARK  222  A    between atoms: _503  and  _506
REMARK  223  A    between atoms: _506  and  _507
REMARK  224  A    between atoms: _510  and  _512
REMARK  225  A    between atoms: _512  and  _513
REMARK  226  A    between atoms: _512  and  _515
REMARK  227  A    between atoms: _515  and  _516
REMARK  228  A    between atoms: _519  and  _521
REMARK  229  A    between atoms: _521  and  _522
REMARK  230  A    between atoms: _521  and  _524
REMARK  231  A    between atoms: _524  and  _525
REMARK  232  A    between atoms: _525  and  _526
REMARK  233  A    between atoms: _531  and  _533
REMARK  234  A    between atoms: _533  and  _534
REMARK  235  A    between atoms: _533  and  _536
REMARK  236  A    between atoms: _539  and  _541
REMARK  237  A    between atoms: _541  and  _542
REMARK  238  A    between atoms: _541  and  _544
REMARK  239  A    between atoms: _544  and  _545
REMARK  240  A    between atoms: _548  and  _550
REMARK  241  A    between atoms: _550  and  _551
REMARK  242  A    between atoms: _550  and  _553
REMARK  243  A    between atoms: _553  and  _554
REMARK  244  A    between atoms: _557  and  _559
REMARK  245  A    between atoms: _559  and  _560
REMARK  246  A    between atoms: _559  and  _562
REMARK  247  A    between atoms: _562  and  _563
REMARK  248  A    between atoms: _569  and  _571
REMARK  249  A    between atoms: _571  and  _572
REMARK  250  A    between atoms: _574  and  _576
REMARK  251  A    between atoms: _576  and  _577
REMARK  252  A    between atoms: _576  and  _579
REMARK  253  A    between atoms: _579  and  _580
REMARK  254  A    between atoms: _586  and  _588
REMARK  255  A    between atoms: _588  and  _589
REMARK  256  A    between atoms: _592  and  _594
REMARK  257  A    between atoms: _594  and  _595
REMARK  258  A    between atoms: _594  and  _597
REMARK  259  A    between atoms: _599  and  _601
REMARK  260  A    between atoms: _601  and  _602
REMARK  261  A    between atoms: _604  and  _606
REMARK  262  A    between atoms: _606  and  _607
REMARK  263  A    between atoms: _606  and  _609
REMARK  264  A    between atoms: _609  and  _610
REMARK  265  A    between atoms: _616  and  _618
REMARK  266  A    between atoms: _618  and  _619
REMARK  267  A    between atoms: _618  and  _621
REMARK  268  A    between atoms: _621  and  _622
REMARK  269  A    between atoms: _627  and  _628
REMARK                            x       y       z     vdW  Elec       q    Type
REMARK                         _______ _______ _______ _____ _____    ______ ____
ROOT
ATOM      1  CA  ASN A   4       8.245  21.511  23.742  0.00  0.00    +0.158 C 
ENDROOT
BRANCH   1   2
ATOM      2  C   ASN A   4       9.687  21.571  23.259  0.00  0.00    +0.241 C 
ATOM      3  O   ASN A   4      10.494  20.717  23.564  0.00  0.00    -0.273 OA
ATOM      4  N   LEU A   5      10.003  22.606  22.523  0.00  0.00    -0.297 N 
ATOM      5  H   LEU A   5       9.304  23.369  22.416  0.00  0.00    +0.150 HD
BRANCH   4   6
ATOM      6  CA  LEU A   5      11.280  22.741  21.849  0.00  0.00    +0.149 C 
BRANCH   6   7
ATOM      7  C   LEU A   5      11.972  23.925  22.512  0.00  0.00    +0.241 C 
ATOM      8  N   LEU A   6      12.908  23.640  23.401  0.00  0.00    -0.297 N 
ATOM      9  H   LEU A   6      13.152  22.649  23.599  0.00  0.00    +0.150 HD
ATOM     10  O   LEU A   5      11.626  25.082  22.269  0.00  0.00    -0.273 OA
BRANCH   8  11
ATOM     11  CA  LEU A   6      13.593  24.708  24.099  0.00  0.00    +0.149 C 
BRANCH  11  12
ATOM     12  C   LEU A   6      14.875  25.089  23.331  0.00  0.00    +0.241 C 
ATOM     13  N   ILE A   7      15.238  26.371  23.379  0.00  0.00    -0.298 N 
ATOM     14  H   ILE A   7      14.645  27.040  23.911  0.00  0.00    +0.150 HD
ATOM     15  O   LEU A   6      15.495  24.244  22.697  0.00  0.00    -0.273 OA
BRANCH  13  16
ATOM     16  CA  ILE A   7      16.433  26.869  22.714  0.00  0.00    +0.137 C 
BRANCH  16  17
ATOM     17  CB  ILE A   7      16.189  28.244  22.001  0.00  0.00    +0.026 C 
ATOM     18  CG2 ILE A   7      17.397  28.606  21.149  0.00  0.00    +0.002 C 
BRANCH  17  19
ATOM     19  CG1 ILE A   7      14.878  28.253  21.169  0.00  0.00    +0.002 C 
ATOM     20  CD1 ILE A   7      14.790  27.243  20.049  0.00  0.00    +0.000 C 
ENDBRANCH  17  19
ENDBRANCH  16  17
BRANCH  16  21
ATOM     21  C   ILE A   7      17.514  27.048  23.770  0.00  0.00    +0.227 C 
ATOM     22  O   ILE A   7      17.297  27.767  24.724  0.00  0.00    -0.286 OA
ENDBRANCH  16  21
ENDBRANCH  13  16
ENDBRANCH  11  12
BRANCH  11  23
ATOM     23  CB  LEU A   6      13.898  24.275  25.534  0.00  0.00    +0.029 C 
BRANCH  23  24
ATOM     24  CG  LEU A   6      12.802  24.515  26.571  0.00  0.00    +0.002 C 
ATOM     25  CD2 LEU A   6      12.693  25.987  26.872  0.00  0.00    +0.000 C 
ATOM     26  CD1 LEU A   6      11.469  23.950  26.143  0.00  0.00    +0.000 C 
ENDBRANCH  23  24
ENDBRANCH  11  23
ENDBRANCH   8  11
ENDBRANCH   6   7
BRANCH   6  27
ATOM     27  CB  LEU A   5      11.034  23.008  20.353  0.00  0.00    +0.029 C 
BRANCH  27  28
ATOM     28  CG  LEU A   5      10.436  21.859  19.503  0.00  0.00    +0.002 C 
ATOM     29  CD2 LEU A   5      11.138  20.465  19.763  0.00  0.00    +0.000 C 
ATOM     30  CD1 LEU A   5      10.477  22.220  17.963  0.00  0.00    +0.000 C 
ENDBRANCH  27  28
ENDBRANCH   6  27
ENDBRANCH   4   6
ENDBRANCH   1   2
BRANCH   1  33
ATOM     31  C   GLU A   3       7.005  23.633  23.803  0.00  0.00    +0.241 C 
ATOM     32  O   GLU A   3       7.305  23.847  24.993  0.00  0.00    -0.273 OA
ATOM     33  N   ASN A   4       7.405  22.550  23.128  0.00  0.00    -0.297 N 
ATOM     34  H   ASN A   4       7.112  22.439  22.136  0.00  0.00    +0.150 HD
BRANCH  31  35
ATOM     35  CA  GLU A   3       6.040  24.557  23.076  0.00  0.00    +0.149 C 
BRANCH  35  37
ATOM     36  C   PRO A   2       7.163  24.970  20.956  0.00  0.00    +0.241 C 
ATOM     37  N   GLU A   3       6.104  24.542  21.628  0.00  0.00    -0.297 N 
ATOM     38  H   GLU A   3       5.287  24.181  21.096  0.00  0.00    +0.150 HD
ATOM     39  O   PRO A   2       8.206  25.331  21.504  0.00  0.00    -0.273 OA
BRANCH  36  43
ATOM     40  C   LYS A   1       6.228  22.566  19.391  0.00  0.00    +0.241 C 
ATOM     41  O   LYS A   1       7.046  22.183  20.217  0.00  0.00    -0.273 OA
ATOM     42  N   PRO A   2       6.168  23.819  18.949  0.00  0.00    -0.272 N 
ATOM     43  CA  PRO A   2       7.090  24.874  19.431  0.00  0.00    +0.152 C 
ATOM     44  CB  PRO A   2       6.522  26.129  18.819  0.00  0.00    +0.031 C 
ATOM     45  CG  PRO A   2       5.871  25.607  17.531  0.00  0.00    +0.024 C 
ATOM     46  CD  PRO A   2       5.239  24.320  17.925  0.00  0.00    +0.094 C 
BRANCH  40  47
ATOM     47  CA  LYS A   1       5.217  21.594  18.812  0.00  0.00    +0.145 C 
BRANCH  47  48
ATOM     48  N   LYS A   1       5.789  20.262  18.872  0.00  0.00    -0.238 NA
ATOM     49  H   LYS A   1       6.758  20.166  19.237  0.00  0.00    +0.142 HD
ENDBRANCH  47  48
BRANCH  47  50
ATOM     50  CB  LYS A   1       3.882  21.705  19.566  0.00  0.00    +0.026 C 
BRANCH  50  51
ATOM     51  CG  LYS A   1       3.862  21.066  20.898  0.00  0.00    -0.000 C 
BRANCH  51  52
ATOM     52  CD  LYS A   1       2.686  21.544  21.695  0.00  0.00    -0.024 C 
BRANCH  52  53
ATOM     53  CE  LYS A   1       2.376  20.651  22.892  0.00  0.00    -0.086 C 
BRANCH  53  54
ATOM     54  NZ  LYS A   1       1.015  20.969  23.571  0.00  0.00    +0.380 N 
ATOM     55  HZ1 LYS A   1       0.871  20.325  24.375  0.00  0.00    -0.089 HD
ATOM     56  HZ2 LYS A   1       1.019  21.952  23.910  0.00  0.00    -0.089 HD
ATOM     57  HZ3 LYS A   1       0.247  20.842  22.881  0.00  0.00    -0.089 HD
ENDBRANCH  53  54
ENDBRANCH  52  53
ENDBRANCH  51  52
ENDBRANCH  50  51
ENDBRANCH  47  50
ENDBRANCH  40  47
ENDBRANCH  36  43
ENDBRANCH  35  37
BRANCH  35  58
ATOM     58  CB  GLU A   3       4.608  24.195  23.501  0.00  0.00    +0.041 C 
BRANCH  58  59
ATOM     59  CG  GLU A   3       3.615  25.313  23.236  0.00  0.00    +0.116 C 
BRANCH  59  60
ATOM     60  CD  GLU A   3       2.790  25.123  21.984  0.00  0.00    +0.365 C 
ATOM     61  OE2 GLU A   3       1.597  25.482  22.012  0.00  0.00    -0.246 OA
ATOM     62  OE1 GLU A   3       3.332  24.653  20.971  0.00  0.00    -0.246 OA
ENDBRANCH  59  60
ENDBRANCH  58  59
ENDBRANCH  35  58
ENDBRANCH  31  35
ENDBRANCH   1  33
BRANCH   1  63
ATOM     63  CB  ASN A   4       7.656  20.135  23.483  0.00  0.00    +0.114 C 
BRANCH  63  64
ATOM     64  CG  ASN A   4       6.332  19.942  24.170  0.00  0.00    +0.222 C 
ATOM     65  OD1 ASN A   4       5.999  20.643  25.121  0.00  0.00    -0.275 OA
ATOM     66  ND2 ASN A   4       5.572  18.972  23.704  0.00  0.00    -0.329 N 
ATOM     67 HD21 ASN A   4       4.651  18.776  24.145  0.00  0.00    +0.145 HD
ATOM     68 HD22 ASN A   4       5.894  18.402  22.896  0.00  0.00    +0.145 HD
ENDBRANCH  63  64
ENDBRANCH   1  63
TORSDOF 29
REMARK  Name = ../refined-set-2016/1xh4/1xh4_pocket.pdb
REMARK  269 active torsions:
REMARK  status: ('A' for Active; 'I' for Inactive)
REMARK    1  A    between atoms: _1  and  _3
REMARK    2  A    between atoms: _3  and  _4
REMARK    3  A    between atoms: _3  and  _6
REMARK    4  A    between atoms: _6  and  _7
REMARK    5  A    between atoms: _10  and  _12
REMARK    6  A    between atoms: _12  and  _13
REMARK    7  A    between atoms: _12  and  _15
REMARK    8  A    between atoms: _15  and  _16
REMARK    9  A    between atoms: _19  and  _21
REMARK   10  A    between atoms: _21  and  _22
REMARK   11  A    between atoms: _24  and  _26
REMARK   12  A    between atoms: _26  and  _27
REMARK   13  A    between atoms: _26  and  _29
REMARK   14  A    between atoms: _29  and  _30
REMARK   15  A    between atoms: _33  and  _35
REMARK   16  A    between atoms: _35  and  _36
REMARK   17  A    between atoms: _38  and  _40
REMARK   18  A    between atoms: _40  and  _41
REMARK   19  A    between atoms: _40  and  _43
REMARK   20  A    between atoms: _43  and  _44
REMARK   21  A    between atoms: _46  and  _48
REMARK   22  A    between atoms: _48  and  _49
REMARK   23  A    between atoms: _48  and  _51
REMARK   24  A    between atoms: _51  and  _52
REMARK   25  A    between atoms: _58  and  _60
REMARK   26  A    between atoms: _60  and  _61
REMARK   27  A    between atoms: _63  and  _65
REMARK   28  A    between atoms: _65  and  _66
REMARK   29  A    between atoms: _65  and  _68
REMARK   30  A    between atoms: _68  and  _69
REMARK   31  A    between atoms: _69  and  _70
REMARK   32  A    between atoms: _70  and  _71
REMARK   33  A    between atoms: _80  and  _82
REMARK   34  A    between atoms: _82  and  _83
REMARK   35  A    between atoms: _82  and  _85
REMARK   36  A    between atoms: _88  and  _90
REMARK   37  A    between atoms: _90  and  _91
REMARK   38  A    between atoms: _90  and  _93
REMARK   39  A    between atoms: _93  and  _94
REMARK   40  A    between atoms: _94  and  _95
REMARK   41  A    between atoms: _97  and  _99
REMARK   42  A    between atoms: _99  and  _100
REMARK   43  A    between atoms: _99  and  _102
REMARK   44  A    between atoms: _102  and  _103
REMARK   45  A    between atoms: _106  and  _108
REMARK   46  A    between atoms: _108  and  _109
REMARK   47  A    between atoms: _108  and  _111
REMARK   48  A    between atoms: _111  and  _112
REMARK   49  A    between atoms: _117  and  _118
REMARK   50  A    between atoms: _120  and  _122
REMARK   51  A    between atoms: _122  and  _123
REMARK   52  A    between atoms: _126  and  _128
REMARK   53  A    between atoms: _128  and  _129
REMARK   54  A    between atoms: _128  and  _131
REMARK   55  A    between atoms: _131  and  _132
REMARK   56  A    between atoms: _132  and  _133
REMARK   57  A    between atoms: _135  and  _137
REMARK   58  A    between atoms: _137  and  _138
REMARK   59  A    between atoms: _137  and  _140
REMARK   60  A    between atoms: _140  and  _141
REMARK   61  A    between atoms: _141  and  _142
REMARK   62  A    between atoms: _142  and  _143
REMARK   63  A    between atoms: _143  and  _144
REMARK   64  A    between atoms: _148  and  _150
REMARK   65  A    between atoms: _150  and  _151
REMARK   66  A    between atoms: _150  and  _153
REMARK   67  A    between atoms: _153  and  _154
REMARK   68  A    between atoms: _157  and  _159
REMARK   69  A    between atoms: _159  and  _160
REMARK   70  A    between atoms: _159  and  _162
REMARK   71  A    between atoms: _162  and  _163
REMARK   72  A    between atoms: _166  and  _168
REMARK   73  A    between atoms: _168  and  _169
REMARK   74  A    between atoms: _168  and  _171
REMARK   75  A    between atoms: _171  and  _172
REMARK   76  A    between atoms: _175  and  _177
REMARK   77  A    between atoms: _177  and  _178
REMARK   78  A    between atoms: _177  and  _180
REMARK   79  A    between atoms: _180  and  _181
REMARK   80  A    between atoms: _181  and  _182
REMARK   81  A    between atoms: _182  and  _183
REMARK   82  A    between atoms: _183  and  _184
REMARK   83  A    between atoms: _188  and  _190
REMARK   84  A    between atoms: _190  and  _191
REMARK   85  A    between atoms: _190  and  _193
REMARK   86  A    between atoms: _196  and  _198
REMARK   87  A    between atoms: _198  and  _199
REMARK   88  A    between atoms: _198  and  _201
REMARK   89  A    between atoms: _201  and  _202
REMARK   90  A    between atoms: _205  and  _207
REMARK   91  A    between atoms: _207  and  _208
REMARK   92  A    between atoms: _207  and  _210
REMARK   93  A    between atoms: _210  and  _211
REMARK   94  A    between atoms: _211  and  _212
REMARK   95  A    between atoms: _212  and  _213
REMARK   96  A    between atoms: _213  and  _214
REMARK   97  A    between atoms: _218  and  _220
REMARK   98  A    between atoms: _220  and  _221
REMARK   99  A    between atoms: _220  and  _223
REMARK  100  A    between atoms: _223  and  _224
REMARK  101  A    between atoms: _224  and  _225
REMARK  102  A    between atoms: _230  and  _232
REMARK  103  A    between atoms: _232  and  _233
REMARK  104  A    between atoms: _232  and  _235
REMARK  105  A    between atoms: _235  and  _236
REMARK  106  A    between atoms: _239  and  _241
REMARK  107  A    between atoms: _241  and  _242
REMARK  108  A    between atoms: _241  and  _244
REMARK  109  A    between atoms: _244  and  _245
REMARK  110  A    between atoms: _250  and  _252
REMARK  111  A    between atoms: _252  and  _253
REMARK  112  A    between atoms: _252  and  _255
REMARK  113  A    between atoms: _255  and  _256
REMARK  114  A    between atoms: _259  and  _261
REMARK  115  A    between atoms: _261  and  _262
REMARK  116  A    between atoms: _261  and  _264
REMARK  117  A    between atoms: _264  and  _265
REMARK  118  A    between atoms: _268  and  _270
REMARK  119  A    between atoms: _270  and  _271
REMARK  120  A    between atoms: _270  and  _273
REMARK  121  A    between atoms: _273  and  _274
REMARK  122  A    between atoms: _274  and  _275
REMARK  123  A    between atoms: _278  and  _280
REMARK  124  A    between atoms: _280  and  _281
REMARK  125  A    between atoms: _280  and  _283
REMARK  126  A    between atoms: _283  and  _284
REMARK  127  A    between atoms: _284  and  _285
REMARK  128  A    between atoms: _285  and  _286
REMARK  129  A    between atoms: _286  and  _287
REMARK  130  A    between atoms: _291  and  _293
REMARK  131  A    between atoms: _293  and  _294
REMARK  132  A    between atoms: _293  and  _296
REMARK  133  A    between atoms: _296  and  _297
REMARK  134  A    between atoms: _300  and  _302
REMARK  135  A    between atoms: _302  and  _303
REMARK  136  A    between atoms: _302  and  _305
REMARK  137  A    between atoms: _308  and  _310
REMARK  138  A    between atoms: _310  and  _311
REMARK  139  A    between atoms: _310  and  _313
REMARK  140  A    between atoms: _313  and  _314
REMARK  141  A    between atoms: _314  and  _315
REMARK  142  A    between atoms: _315  and  _316
REMARK  143  A    between atoms: _316  and  _317
REMARK  144  A    between atoms: _321  and  _323
REMARK  145  A    between atoms: _323  and  _324
REMARK  146  A    between atoms: _323  and  _326
REMARK  147  A    between atoms: _326  and  _327
REMARK  148  A    between atoms: _330  and  _332
REMARK  149  A    between atoms: _332  and  _333
REMARK  150  A    between atoms: _332  and  _335
REMARK  151  A    between atoms: _335  and  _336
REMARK  152  A    between atoms: _336  and  _337
REMARK  153  A    between atoms: _339  and  _341
REMARK  154  A    between atoms: _341  and  _342
REMARK  155  A    between atoms: _341  and  _344
REMARK  156  A    between atoms: _344  and  _345
REMARK  157  A    between atoms: _345  and  _346
REMARK  158  A    between atoms: _348  and  _350
REMARK  159  A    between atoms: _350  and  _351
REMARK  160  A    between atoms: _350  and  _353
REMARK  161  A    between atoms: _353  and  _354
REMARK  162  A    between atoms: _354  and  _355
REMARK  163  A    between atoms: _358  and  _360
REMARK  164  A    between atoms: _360  and  _361
REMARK  165  A    between atoms: _360  and  _363
REMARK  166  A    between atoms: _363  and  _364
REMARK  167  A    between atoms: _369  and  _370
REMARK  168  A    between atoms: _372  and  _374
REMARK  169  A    between atoms: _374  and  _375
REMARK  170  A    between atoms: _374  and  _377
REMARK  171  A    between atoms: _381  and  _382
REMARK  172  A    between atoms: _387  and  _389
REMARK  173  A    between atoms: _389  and  _390
REMARK  174  A    between atoms: _392  and  _394
REMARK  175  A    between atoms: _394  and  _395
REMARK  176  A    between atoms: _397  and  _399
REMARK  177  A    between atoms: _399  and  _400
REMARK  178  A    between atoms: _399  and  _402
REMARK  179  A    between atoms: _402  and  _403
REMARK  180  A    between atoms: _403  and  _404
REMARK  181  A    between atoms: _407  and  _409
REMARK  182  A    between atoms: _409  and  _410
REMARK  183  A    between atoms: _409  and  _412
REMARK  184  A    between atoms: _412  and  _413
REMARK  185  A    between atoms: _413  and  _414
REMARK  186  A    between atoms: _416  and  _418
REMARK  187  A    between atoms: _418  and  _419
REMARK  188  A    between atoms: _418  and  _421
REMARK  189  A    between atoms: _421  and  _422
REMARK  190  A    between atoms: _428  and  _430
REMARK  191  A    between atoms: _430  and  _431
REMARK  192  A    between atoms: _430  and  _433
REMARK  193  A    between atoms: _433  and  _434
REMARK  194  A    between atoms: _439  and  _440
REMARK  195  A    between atoms: _442  and  _444
REMARK  196  A    between atoms: _444  and  _445
REMARK  197  A    between atoms: _444  and  _447
REMARK  198  A    between atoms: _447  and  _448
REMARK  199  A    between atoms: _451  and  _453
REMARK  200  A    between atoms: _453  and  _454
REMARK  201  A    between atoms: _453  and  _456
REMARK  202  A    between atoms: _456  and  _457
REMARK  203  A    between atoms: _457  and  _458
REMARK  204  A    between atoms: _458  and  _459
REMARK  205  A    between atoms: _459  and  _460
REMARK  206  A    between atoms: _465  and  _466
REMARK  207  A    between atoms: _471  and  _473
REMARK  208  A    between atoms: _473  and  _474
REMARK  209  A    between atoms: _473  and  _476
REMARK  210  A    between atoms: _476  and  _477
REMARK  211  A    between atoms: _477  and  _478
REMARK  212  A    between atoms: _481  and  _483
REMARK  213  A    between atoms: _483  and  _484
REMARK  214  A    between atoms: _483  and  _486
REMARK  215  A    between atoms: _486  and  _487
REMARK  216  A    between atoms: _492  and  _494
REMARK  217  A    between atoms: _494  and  _495
REMARK  218  A    between atoms: _494  and  _497
REMARK  219  A    between atoms: _497  and  _498
REMARK  220  A    between atoms: _501  and  _503
REMARK  221  A    between atoms: _503  and  _504
REMARK  222  A    between atoms: _503  and  _506
REMARK  223  A    between atoms: _506  and  _507
REMARK  224  A    between atoms: _510  and  _512
REMARK  225  A    between atoms: _512  and  _513
REMARK  226  A    between atoms: _512  and  _515
REMARK  227  A    between atoms: _515  and  _516
REMARK  228  A    between atoms: _519  and  _521
REMARK  229  A    between atoms: _521  and  _522
REMARK  230  A    between atoms: _521  and  _524
REMARK  231  A    between atoms: _524  and  _525
REMARK  232  A    between atoms: _525  and  _526
REMARK  233  A    between atoms: _531  and  _533
REMARK  234  A    between atoms: _533  and  _534
REMARK  235  A    between atoms: _533  and  _536
REMARK  236  A    between atoms: _539  and  _541
REMARK  237  A    between atoms: _541  and  _542
REMARK  238  A    between atoms: _541  and  _544
REMARK  239  A    between atoms: _544  and  _545
REMARK  240  A    between atoms: _548  and  _550
REMARK  241  A    between atoms: _550  and  _551
REMARK  242  A    between atoms: _550  and  _553
REMARK  243  A    between atoms: _553  and  _554
REMARK  244  A    between atoms: _557  and  _559
REMARK  245  A    between atoms: _559  and  _560
REMARK  246  A    between atoms: _559  and  _562
REMARK  247  A    between atoms: _562  and  _563
REMARK  248  A    between atoms: _569  and  _571
REMARK  249  A    between atoms: _571  and  _572
REMARK  250  A    between atoms: _574  and  _576
REMARK  251  A    between atoms: _576  and  _577
REMARK  252  A    between atoms: _576  and  _579
REMARK  253  A    between atoms: _579  and  _580
REMARK  254  A    between atoms: _586  and  _588
REMARK  255  A    between atoms: _588  and  _589
REMARK  256  A    between atoms: _592  and  _594
REMARK  257  A    between atoms: _594  and  _595
REMARK  258  A    between atoms: _594  and  _597
REMARK  259  A    between atoms: _599  and  _601
REMARK  260  A    between atoms: _601  and  _602
REMARK  261  A    between atoms: _604  and  _606
REMARK  262  A    between atoms: _606  and  _607
REMARK  263  A    between atoms: _606  and  _609
REMARK  264  A    between atoms: _609  and  _610
REMARK  265  A    between atoms: _616  and  _618
REMARK  266  A    between atoms: _618  and  _619
REMARK  267  A    between atoms: _618  and  _621
REMARK  268  A    between atoms: _621  and  _622
REMARK  269  A    between atoms: _627  and  _628
REMARK                            x       y       z     vdW  Elec       q    Type
REMARK                         _______ _______ _______ _____ _____    ______ ____
ROOT
ATOM      1  C   ASP A   4       7.743  15.537  26.858  0.00  0.00    +0.241 C 
ATOM      2  N   PHE A   5       8.274  14.459  27.402  0.00  0.00    -0.297 N 
ATOM      3  H   PHE A   5       8.825  14.576  28.276  0.00  0.00    +0.150 HD
ATOM      4  O   ASP A   4       7.086  15.537  25.799  0.00  0.00    -0.273 OA
ENDROOT
BRANCH   1   5
ATOM      5  CA  ASP A   4       8.048  16.803  27.661  0.00  0.00    +0.160 C 
BRANCH   5   7
ATOM      6  C   THR A   3       9.939  17.634  26.352  0.00  0.00    +0.243 C 
ATOM      7  N   ASP A   4       9.406  17.276  27.517  0.00  0.00    -0.296 N 
ATOM      8  H   ASP A   4       9.998  17.340  28.370  0.00  0.00    +0.150 HD
ATOM      9  O   THR A   3       9.417  17.454  25.263  0.00  0.00    -0.273 OA
BRANCH   6  10
ATOM     10  CA  THR A   3      11.248  18.360  26.422  0.00  0.00    +0.176 C 
BRANCH  10  13
ATOM     11  C   VAL A   2      12.836  18.180  24.585  0.00  0.00    +0.241 C 
ATOM     12  O   VAL A   2      13.678  17.623  25.303  0.00  0.00    -0.273 OA
ATOM     13  N   THR A   3      11.663  18.568  25.040  0.00  0.00    -0.295 N 
ATOM     14  H   THR A   3      11.006  19.042  24.387  0.00  0.00    +0.150 HD
BRANCH  11  15
ATOM     15  CA  VAL A   2      13.114  18.489  23.093  0.00  0.00    +0.148 C 
BRANCH  15  18
ATOM     16  C   GLN A   1      14.830  20.202  23.378  0.00  0.00    +0.238 C 
ATOM     17  O   GLN A   1      14.011  20.997  23.850  0.00  0.00    -0.274 OA
ATOM     18  N   VAL A   2      14.482  18.998  22.956  0.00  0.00    -0.297 N 
ATOM     19  H   VAL A   2      15.202  18.393  22.513  0.00  0.00    +0.150 HD
BRANCH  16  20
ATOM     20  CA  GLN A   1      16.319  20.568  23.250  0.00  0.00    +0.145 C 
BRANCH  20  21
ATOM     21  N   GLN A   1      16.462  21.632  22.263  0.00  0.00    -0.238 NA
ATOM     22  H   GLN A   1      15.859  22.472  22.376  0.00  0.00    +0.142 HD
ENDBRANCH  20  21
BRANCH  20  23
ATOM     23  CB  GLN A   1      16.799  21.051  24.603  0.00  0.00    +0.036 C 
BRANCH  23  24
ATOM     24  CG  GLN A   1      18.160  21.629  24.587  0.00  0.00    +0.087 C 
BRANCH  24  25
ATOM     25  CD  GLN A   1      19.152  20.563  24.701  0.00  0.00    +0.219 C 
ATOM     26  OE1 GLN A   1      19.304  19.991  25.791  0.00  0.00    -0.275 OA
ATOM     27  NE2 GLN A   1      19.858  20.268  23.604  0.00  0.00    -0.329 N 
ATOM     28 HE21 GLN A   1      20.582  19.522  23.636  0.00  0.00    +0.145 HD
ATOM     29 HE22 GLN A   1      19.683  20.785  22.719  0.00  0.00    +0.145 HD
ENDBRANCH  24  25
ENDBRANCH  23  24
ENDBRANCH  20  23
ENDBRANCH  16  20
ENDBRANCH  15  18
BRANCH  15  30
ATOM     30  CB  VAL A   2      12.914  17.244  22.194  0.00  0.00    +0.027 C 
ATOM     31  CG2 VAL A   2      11.511  16.582  22.390  0.00  0.00    +0.002 C 
ATOM     32  CG1 VAL A   2      13.115  17.637  20.752  0.00  0.00    +0.002 C 
ENDBRANCH  15  30
ENDBRANCH  11  15
ENDBRANCH  10  13
BRANCH  10  33
ATOM     33  CB  THR A   3      11.015  19.720  27.145  0.00  0.00    +0.137 C 
ATOM     34  CG2 THR A   3      12.252  20.559  27.084  0.00  0.00    +0.034 C 
BRANCH  33  35
ATOM     35  OG1 THR A   3      10.034  20.491  26.435  0.00  0.00    -0.382 OA
ATOM     36  HG1 THR A   3      10.354  20.662  25.514  0.00  0.00    +0.210 HD
ENDBRANCH  33  35
ENDBRANCH  10  33
ENDBRANCH   6  10
ENDBRANCH   5   7
BRANCH   5  37
ATOM     37  CB  ASP A   4       7.098  17.955  27.382  0.00  0.00    +0.143 C 
BRANCH  37  38
ATOM     38  CG  ASP A   4       6.980  18.919  28.588  0.00  0.00    +0.367 C 
ATOM     39  OD2 ASP A   4       7.490  18.592  29.698  0.00  0.00    -0.246 OA
ATOM     40  OD1 ASP A   4       6.392  20.025  28.503  0.00  0.00    -0.246 OA
ENDBRANCH  37  38
ENDBRANCH   5  37
ENDBRANCH   1   5
BRANCH   2  41
ATOM     41  CA  PHE A   5       8.138  13.114  26.857  0.00  0.00    +0.153 C 
BRANCH  41  42
ATOM     42  C   PHE A   5       6.903  12.378  27.397  0.00  0.00    +0.241 C 
ATOM     43  N   GLY A   6       5.923  13.141  27.898  0.00  0.00    -0.295 N 
ATOM     44  H   GLY A   6       6.010  14.174  27.813  0.00  0.00    +0.150 HD
ATOM     45  O   PHE A   5       6.820  11.164  27.299  0.00  0.00    -0.273 OA
BRANCH  43  46
ATOM     46  CA  GLY A   6       4.750  12.603  28.551  0.00  0.00    +0.176 C 
BRANCH  46  47
ATOM     47  C   GLY A   6       3.953  11.656  27.694  0.00  0.00    +0.243 C 
ATOM     48  O   GLY A   6       3.341  10.755  28.242  0.00  0.00    -0.273 OA
ATOM     49  N   PHE A   7       3.962  11.844  26.374  0.00  0.00    -0.297 N 
ATOM     50  H   PHE A   7       4.469  12.666  25.988  0.00  0.00    +0.150 HD
BRANCH  49  51
ATOM     51  CA  PHE A   7       3.280  10.930  25.442  0.00  0.00    +0.153 C 
BRANCH  51  52
ATOM     52  C   PHE A   7       4.257  10.021  24.698  0.00  0.00    +0.241 C 
ATOM     53  N   ALA A   8       5.527  10.091  25.038  0.00  0.00    -0.298 N 
ATOM     54  H   ALA A   8       5.840  10.793  25.739  0.00  0.00    +0.150 HD
ATOM     55  O   PHE A   7       3.859   9.255  23.831  0.00  0.00    -0.273 OA
BRANCH  53  56
ATOM     56  CA  ALA A   8       6.494   9.186  24.434  0.00  0.00    +0.137 C 
ATOM     57  CB  ALA A   8       7.944   9.617  24.781  0.00  0.00    +0.030 C 
BRANCH  56  58
ATOM     58  C   ALA A   8       6.229   7.725  24.864  0.00  0.00    +0.227 C 
ATOM     59  O   ALA A   8       5.850   7.454  25.999  0.00  0.00    -0.286 OA
ENDBRANCH  56  58
ENDBRANCH  53  56
ENDBRANCH  51  52
BRANCH  51  60
ATOM     60  CB  PHE A   7       2.428  11.714  24.419  0.00  0.00    +0.055 C 
BRANCH  60  61
ATOM     61  CG  PHE A   7       1.429  12.575  25.059  0.00  0.00    -0.020 A 
ATOM     62  CD2 PHE A   7       0.284  12.021  25.597  0.00  0.00    -0.004 A 
ATOM     63  CE2 PHE A   7      -0.655  12.803  26.270  0.00  0.00    -0.000 A 
ATOM     64  CZ  PHE A   7      -0.429  14.119  26.430  0.00  0.00    -0.000 A 
ATOM     65  CE1 PHE A   7       0.765  14.681  25.937  0.00  0.00    -0.000 A 
ATOM     66  CD1 PHE A   7       1.676  13.898  25.251  0.00  0.00    -0.004 A 
ENDBRANCH  60  61
ENDBRANCH  51  60
ENDBRANCH  49  51
ENDBRANCH  46  47
ENDBRANCH  43  46
ENDBRANCH  41  42
BRANCH  41  67
ATOM     67  CB  PHE A   5       9.440  12.350  27.131  0.00  0.00    +0.055 C 
BRANCH  67  68
ATOM     68  CG  PHE A   5      10.553  12.831  26.268  0.00  0.00    -0.020 A 
ATOM     69  CD2 PHE A   5      11.252  13.963  26.594  0.00  0.00    -0.004 A 
ATOM     70  CE2 PHE A   5      12.186  14.461  25.736  0.00  0.00    -0.000 A 
ATOM     71  CZ  PHE A   5      12.438  13.816  24.531  0.00  0.00    -0.000 A 
ATOM     72  CE1 PHE A   5      11.749  12.729  24.197  0.00  0.00    -0.000 A 
ATOM     73  CD1 PHE A   5      10.799  12.231  25.051  0.00  0.00    -0.004 A 
ENDBRANCH  67  68
ENDBRANCH  41  67
ENDBRANCH   2  41
TORSDOF 28
REMARK  Name = ../refined-set-2016/1xh4/1xh4_pocket.pdb
REMARK  269 active torsions:
REMARK  status: ('A' for Active; 'I' for Inactive)
REMARK    1  A    between atoms: _1  and  _3
REMARK    2  A    between atoms: _3  and  _4
REMARK    3  A    between atoms: _3  and  _6
REMARK    4  A    between atoms: _6  and  _7
REMARK    5  A    between atoms: _10  and  _12
REMARK    6  A    between atoms: _12  and  _13
REMARK    7  A    between atoms: _12  and  _15
REMARK    8  A    between atoms: _15  and  _16
REMARK    9  A    between atoms: _19  and  _21
REMARK   10  A    between atoms: _21  and  _22
REMARK   11  A    between atoms: _24  and  _26
REMARK   12  A    between atoms: _26  and  _27
REMARK   13  A    between atoms: _26  and  _29
REMARK   14  A    between atoms: _29  and  _30
REMARK   15  A    between atoms: _33  and  _35
REMARK   16  A    between atoms: _35  and  _36
REMARK   17  A    between atoms: _38  and  _40
REMARK   18  A    between atoms: _40  and  _41
REMARK   19  A    between atoms: _40  and  _43
REMARK   20  A    between atoms: _43  and  _44
REMARK   21  A    between atoms: _46  and  _48
REMARK   22  A    between atoms: _48  and  _49
REMARK   23  A    between atoms: _48  and  _51
REMARK   24  A    between atoms: _51  and  _52
REMARK   25  A    between atoms: _58  and  _60
REMARK   26  A    between atoms: _60  and  _61
REMARK   27  A    between atoms: _63  and  _65
REMARK   28  A    between atoms: _65  and  _66
REMARK   29  A    between atoms: _65  and  _68
REMARK   30  A    between atoms: _68  and  _69
REMARK   31  A    between atoms: _69  and  _70
REMARK   32  A    between atoms: _70  and  _71
REMARK   33  A    between atoms: _80  and  _82
REMARK   34  A    between atoms: _82  and  _83
REMARK   35  A    between atoms: _82  and  _85
REMARK   36  A    between atoms: _88  and  _90
REMARK   37  A    between atoms: _90  and  _91
REMARK   38  A    between atoms: _90  and  _93
REMARK   39  A    between atoms: _93  and  _94
REMARK   40  A    between atoms: _94  and  _95
REMARK   41  A    between atoms: _97  and  _99
REMARK   42  A    between atoms: _99  and  _100
REMARK   43  A    between atoms: _99  and  _102
REMARK   44  A    between atoms: _102  and  _103
REMARK   45  A    between atoms: _106  and  _108
REMARK   46  A    between atoms: _108  and  _109
REMARK   47  A    between atoms: _108  and  _111
REMARK   48  A    between atoms: _111  and  _112
REMARK   49  A    between atoms: _117  and  _118
REMARK   50  A    between atoms: _120  and  _122
REMARK   51  A    between atoms: _122  and  _123
REMARK   52  A    between atoms: _126  and  _128
REMARK   53  A    between atoms: _128  and  _129
REMARK   54  A    between atoms: _128  and  _131
REMARK   55  A    between atoms: _131  and  _132
REMARK   56  A    between atoms: _132  and  _133
REMARK   57  A    between atoms: _135  and  _137
REMARK   58  A    between atoms: _137  and  _138
REMARK   59  A    between atoms: _137  and  _140
REMARK   60  A    between atoms: _140  and  _141
REMARK   61  A    between atoms: _141  and  _142
REMARK   62  A    between atoms: _142  and  _143
REMARK   63  A    between atoms: _143  and  _144
REMARK   64  A    between atoms: _148  and  _150
REMARK   65  A    between atoms: _150  and  _151
REMARK   66  A    between atoms: _150  and  _153
REMARK   67  A    between atoms: _153  and  _154
REMARK   68  A    between atoms: _157  and  _159
REMARK   69  A    between atoms: _159  and  _160
REMARK   70  A    between atoms: _159  and  _162
REMARK   71  A    between atoms: _162  and  _163
REMARK   72  A    between atoms: _166  and  _168
REMARK   73  A    between atoms: _168  and  _169
REMARK   74  A    between atoms: _168  and  _171
REMARK   75  A    between atoms: _171  and  _172
REMARK   76  A    between atoms: _175  and  _177
REMARK   77  A    between atoms: _177  and  _178
REMARK   78  A    between atoms: _177  and  _180
REMARK   79  A    between atoms: _180  and  _181
REMARK   80  A    between atoms: _181  and  _182
REMARK   81  A    between atoms: _182  and  _183
REMARK   82  A    between atoms: _183  and  _184
REMARK   83  A    between atoms: _188  and  _190
REMARK   84  A    between atoms: _190  and  _191
REMARK   85  A    between atoms: _190  and  _193
REMARK   86  A    between atoms: _196  and  _198
REMARK   87  A    between atoms: _198  and  _199
REMARK   88  A    between atoms: _198  and  _201
REMARK   89  A    between atoms: _201  and  _202
REMARK   90  A    between atoms: _205  and  _207
REMARK   91  A    between atoms: _207  and  _208
REMARK   92  A    between atoms: _207  and  _210
REMARK   93  A    between atoms: _210  and  _211
REMARK   94  A    between atoms: _211  and  _212
REMARK   95  A    between atoms: _212  and  _213
REMARK   96  A    between atoms: _213  and  _214
REMARK   97  A    between atoms: _218  and  _220
REMARK   98  A    between atoms: _220  and  _221
REMARK   99  A    between atoms: _220  and  _223
REMARK  100  A    between atoms: _223  and  _224
REMARK  101  A    between atoms: _224  and  _225
REMARK  102  A    between atoms: _230  and  _232
REMARK  103  A    between atoms: _232  and  _233
REMARK  104  A    between atoms: _232  and  _235
REMARK  105  A    between atoms: _235  and  _236
REMARK  106  A    between atoms: _239  and  _241
REMARK  107  A    between atoms: _241  and  _242
REMARK  108  A    between atoms: _241  and  _244
REMARK  109  A    between atoms: _244  and  _245
REMARK  110  A    between atoms: _250  and  _252
REMARK  111  A    between atoms: _252  and  _253
REMARK  112  A    between atoms: _252  and  _255
REMARK  113  A    between atoms: _255  and  _256
REMARK  114  A    between atoms: _259  and  _261
REMARK  115  A    between atoms: _261  and  _262
REMARK  116  A    between atoms: _261  and  _264
REMARK  117  A    between atoms: _264  and  _265
REMARK  118  A    between atoms: _268  and  _270
REMARK  119  A    between atoms: _270  and  _271
REMARK  120  A    between atoms: _270  and  _273
REMARK  121  A    between atoms: _273  and  _274
REMARK  122  A    between atoms: _274  and  _275
REMARK  123  A    between atoms: _278  and  _280
REMARK  124  A    between atoms: _280  and  _281
REMARK  125  A    between atoms: _280  and  _283
REMARK  126  A    between atoms: _283  and  _284
REMARK  127  A    between atoms: _284  and  _285
REMARK  128  A    between atoms: _285  and  _286
REMARK  129  A    between atoms: _286  and  _287
REMARK  130  A    between atoms: _291  and  _293
REMARK  131  A    between atoms: _293  and  _294
REMARK  132  A    between atoms: _293  and  _296
REMARK  133  A    between atoms: _296  and  _297
REMARK  134  A    between atoms: _300  and  _302
REMARK  135  A    between atoms: _302  and  _303
REMARK  136  A    between atoms: _302  and  _305
REMARK  137  A    between atoms: _308  and  _310
REMARK  138  A    between atoms: _310  and  _311
REMARK  139  A    between atoms: _310  and  _313
REMARK  140  A    between atoms: _313  and  _314
REMARK  141  A    between atoms: _314  and  _315
REMARK  142  A    between atoms: _315  and  _316
REMARK  143  A    between atoms: _316  and  _317
REMARK  144  A    between atoms: _321  and  _323
REMARK  145  A    between atoms: _323  and  _324
REMARK  146  A    between atoms: _323  and  _326
REMARK  147  A    between atoms: _326  and  _327
REMARK  148  A    between atoms: _330  and  _332
REMARK  149  A    between atoms: _332  and  _333
REMARK  150  A    between atoms: _332  and  _335
REMARK  151  A    between atoms: _335  and  _336
REMARK  152  A    between atoms: _336  and  _337
REMARK  153  A    between atoms: _339  and  _341
REMARK  154  A    between atoms: _341  and  _342
REMARK  155  A    between atoms: _341  and  _344
REMARK  156  A    between atoms: _344  and  _345
REMARK  157  A    between atoms: _345  and  _346
REMARK  158  A    between atoms: _348  and  _350
REMARK  159  A    between atoms: _350  and  _351
REMARK  160  A    between atoms: _350  and  _353
REMARK  161  A    between atoms: _353  and  _354
REMARK  162  A    between atoms: _354  and  _355
REMARK  163  A    between atoms: _358  and  _360
REMARK  164  A    between atoms: _360  and  _361
REMARK  165  A    between atoms: _360  and  _363
REMARK  166  A    between atoms: _363  and  _364
REMARK  167  A    between atoms: _369  and  _370
REMARK  168  A    between atoms: _372  and  _374
REMARK  169  A    between atoms: _374  and  _375
REMARK  170  A    between atoms: _374  and  _377
REMARK  171  A    between atoms: _381  and  _382
REMARK  172  A    between atoms: _387  and  _389
REMARK  173  A    between atoms: _389  and  _390
REMARK  174  A    between atoms: _392  and  _394
REMARK  175  A    between atoms: _394  and  _395
REMARK  176  A    between atoms: _397  and  _399
REMARK  177  A    between atoms: _399  and  _400
REMARK  178  A    between atoms: _399  and  _402
REMARK  179  A    between atoms: _402  and  _403
REMARK  180  A    between atoms: _403  and  _404
REMARK  181  A    between atoms: _407  and  _409
REMARK  182  A    between atoms: _409  and  _410
REMARK  183  A    between atoms: _409  and  _412
REMARK  184  A    between atoms: _412  and  _413
REMARK  185  A    between atoms: _413  and  _414
REMARK  186  A    between atoms: _416  and  _418
REMARK  187  A    between atoms: _418  and  _419
REMARK  188  A    between atoms: _418  and  _421
REMARK  189  A    between atoms: _421  and  _422
REMARK  190  A    between atoms: _428  and  _430
REMARK  191  A    between atoms: _430  and  _431
REMARK  192  A    between atoms: _430  and  _433
REMARK  193  A    between atoms: _433  and  _434
REMARK  194  A    between atoms: _439  and  _440
REMARK  195  A    between atoms: _442  and  _444
REMARK  196  A    between atoms: _444  and  _445
REMARK  197  A    between atoms: _444  and  _447
REMARK  198  A    between atoms: _447  and  _448
REMARK  199  A    between atoms: _451  and  _453
REMARK  200  A    between atoms: _453  and  _454
REMARK  201  A    between atoms: _453  and  _456
REMARK  202  A    between atoms: _456  and  _457
REMARK  203  A    between atoms: _457  and  _458
REMARK  204  A    between atoms: _458  and  _459
REMARK  205  A    between atoms: _459  and  _460
REMARK  206  A    between atoms: _465  and  _466
REMARK  207  A    between atoms: _471  and  _473
REMARK  208  A    between atoms: _473  and  _474
REMARK  209  A    between atoms: _473  and  _476
REMARK  210  A    between atoms: _476  and  _477
REMARK  211  A    between atoms: _477  and  _478
REMARK  212  A    between atoms: _481  and  _483
REMARK  213  A    between atoms: _483  and  _484
REMARK  214  A    between atoms: _483  and  _486
REMARK  215  A    between atoms: _486  and  _487
REMARK  216  A    between atoms: _492  and  _494
REMARK  217  A    between atoms: _494  and  _495
REMARK  218  A    between atoms: _494  and  _497
REMARK  219  A    between atoms: _497  and  _498
REMARK  220  A    between atoms: _501  and  _503
REMARK  221  A    between atoms: _503  and  _504
REMARK  222  A    between atoms: _503  and  _506
REMARK  223  A    between atoms: _506  and  _507
REMARK  224  A    between atoms: _510  and  _512
REMARK  225  A    between atoms: _512  and  _513
REMARK  226  A    between atoms: _512  and  _515
REMARK  227  A    between atoms: _515  and  _516
REMARK  228  A    between atoms: _519  and  _521
REMARK  229  A    between atoms: _521  and  _522
REMARK  230  A    between atoms: _521  and  _524
REMARK  231  A    between atoms: _524  and  _525
REMARK  232  A    between atoms: _525  and  _526
REMARK  233  A    between atoms: _531  and  _533
REMARK  234  A    between atoms: _533  and  _534
REMARK  235  A    between atoms: _533  and  _536
REMARK  236  A    between atoms: _539  and  _541
REMARK  237  A    between atoms: _541  and  _542
REMARK  238  A    between atoms: _541  and  _544
REMARK  239  A    between atoms: _544  and  _545
REMARK  240  A    between atoms: _548  and  _550
REMARK  241  A    between atoms: _550  and  _551
REMARK  242  A    between atoms: _550  and  _553
REMARK  243  A    between atoms: _553  and  _554
REMARK  244  A    between atoms: _557  and  _559
REMARK  245  A    between atoms: _559  and  _560
REMARK  246  A    between atoms: _559  and  _562
REMARK  247  A    between atoms: _562  and  _563
REMARK  248  A    between atoms: _569  and  _571
REMARK  249  A    between atoms: _571  and  _572
REMARK  250  A    between atoms: _574  and  _576
REMARK  251  A    between atoms: _576  and  _577
REMARK  252  A    between atoms: _576  and  _579
REMARK  253  A    between atoms: _579  and  _580
REMARK  254  A    between atoms: _586  and  _588
REMARK  255  A    between atoms: _588  and  _589
REMARK  256  A    between atoms: _592  and  _594
REMARK  257  A    between atoms: _594  and  _595
REMARK  258  A    between atoms: _594  and  _597
REMARK  259  A    between atoms: _599  and  _601
REMARK  260  A    between atoms: _601  and  _602
REMARK  261  A    between atoms: _604  and  _606
REMARK  262  A    between atoms: _606  and  _607
REMARK  263  A    between atoms: _606  and  _609
REMARK  264  A    between atoms: _609  and  _610
REMARK  265  A    between atoms: _616  and  _618
REMARK  266  A    between atoms: _618  and  _619
REMARK  267  A    between atoms: _618  and  _621
REMARK  268  A    between atoms: _621  and  _622
REMARK  269  A    between atoms: _627  and  _628
REMARK                            x       y       z     vdW  Elec       q    Type
REMARK                         _______ _______ _______ _____ _____    ______ ____
ROOT
ATOM      1  C   CYS A   1      -2.412  12.548  21.441  0.00  0.00    +0.239 C 
ATOM      2  N   GLY A   2      -2.066  13.742  21.921  0.00  0.00    -0.297 N 
ATOM      3  H   GLY A   2      -2.317  13.977  22.902  0.00  0.00    +0.150 HD
ATOM      4  O   CYS A   1      -2.205  12.194  20.279  0.00  0.00    -0.274 OA
ENDROOT
BRANCH   1   5
ATOM      5  CA  CYS A   1      -3.261  11.699  22.371  0.00  0.00    +0.156 C 
BRANCH   5   6
ATOM      6  N   CYS A   1      -3.990  10.696  21.621  0.00  0.00    -0.237 NA
ATOM      7  H   CYS A   1      -3.565  10.299  20.759  0.00  0.00    +0.142 HD
ENDBRANCH   5   6
BRANCH   5   8
ATOM      8  CB  CYS A   1      -2.420  11.067  23.459  0.00  0.00    +0.095 C 
ATOM      9  SG  CYS A   1      -1.093  10.033  22.839  0.00  0.00    -0.080 S 
ENDBRANCH   5   8
ENDBRANCH   1   5
BRANCH   2  10
ATOM     10  CA  GLY A   2      -1.357  14.722  21.134  0.00  0.00    +0.163 C 
BRANCH  10  11
ATOM     11  C   GLY A   2      -1.915  16.123  21.267  0.00  0.00    +0.229 C 
ATOM     12  O   GLY A   2      -2.823  16.379  22.038  0.00  0.00    -0.286 OA
ENDBRANCH  10  11
ENDBRANCH   2  10
TORSDOF 5
REMARK  Name = ../refined-set-2016/1xh4/1xh4_pocket.pdb
REMARK  269 active torsions:
REMARK  status: ('A' for Active; 'I' for Inactive)
REMARK    1  A    between atoms: _1  and  _3
REMARK    2  A    between atoms: _3  and  _4
REMARK    3  A    between atoms: _3  and  _6
REMARK    4  A    between atoms: _6  and  _7
REMARK    5  A    between atoms: _10  and  _12
REMARK    6  A    between atoms: _12  and  _13
REMARK    7  A    between atoms: _12  and  _15
REMARK    8  A    between atoms: _15  and  _16
REMARK    9  A    between atoms: _19  and  _21
REMARK   10  A    between atoms: _21  and  _22
REMARK   11  A    between atoms: _24  and  _26
REMARK   12  A    between atoms: _26  and  _27
REMARK   13  A    between atoms: _26  and  _29
REMARK   14  A    between atoms: _29  and  _30
REMARK   15  A    between atoms: _33  and  _35
REMARK   16  A    between atoms: _35  and  _36
REMARK   17  A    between atoms: _38  and  _40
REMARK   18  A    between atoms: _40  and  _41
REMARK   19  A    between atoms: _40  and  _43
REMARK   20  A    between atoms: _43  and  _44
REMARK   21  A    between atoms: _46  and  _48
REMARK   22  A    between atoms: _48  and  _49
REMARK   23  A    between atoms: _48  and  _51
REMARK   24  A    between atoms: _51  and  _52
REMARK   25  A    between atoms: _58  and  _60
REMARK   26  A    between atoms: _60  and  _61
REMARK   27  A    between atoms: _63  and  _65
REMARK   28  A    between atoms: _65  and  _66
REMARK   29  A    between atoms: _65  and  _68
REMARK   30  A    between atoms: _68  and  _69
REMARK   31  A    between atoms: _69  and  _70
REMARK   32  A    between atoms: _70  and  _71
REMARK   33  A    between atoms: _80  and  _82
REMARK   34  A    between atoms: _82  and  _83
REMARK   35  A    between atoms: _82  and  _85
REMARK   36  A    between atoms: _88  and  _90
REMARK   37  A    between atoms: _90  and  _91
REMARK   38  A    between atoms: _90  and  _93
REMARK   39  A    between atoms: _93  and  _94
REMARK   40  A    between atoms: _94  and  _95
REMARK   41  A    between atoms: _97  and  _99
REMARK   42  A    between atoms: _99  and  _100
REMARK   43  A    between atoms: _99  and  _102
REMARK   44  A    between atoms: _102  and  _103
REMARK   45  A    between atoms: _106  and  _108
REMARK   46  A    between atoms: _108  and  _109
REMARK   47  A    between atoms: _108  and  _111
REMARK   48  A    between atoms: _111  and  _112
REMARK   49  A    between atoms: _117  and  _118
REMARK   50  A    between atoms: _120  and  _122
REMARK   51  A    between atoms: _122  and  _123
REMARK   52  A    between atoms: _126  and  _128
REMARK   53  A    between atoms: _128  and  _129
REMARK   54  A    between atoms: _128  and  _131
REMARK   55  A    between atoms: _131  and  _132
REMARK   56  A    between atoms: _132  and  _133
REMARK   57  A    between atoms: _135  and  _137
REMARK   58  A    between atoms: _137  and  _138
REMARK   59  A    between atoms: _137  and  _140
REMARK   60  A    between atoms: _140  and  _141
REMARK   61  A    between atoms: _141  and  _142
REMARK   62  A    between atoms: _142  and  _143
REMARK   63  A    between atoms: _143  and  _144
REMARK   64  A    between atoms: _148  and  _150
REMARK   65  A    between atoms: _150  and  _151
REMARK   66  A    between atoms: _150  and  _153
REMARK   67  A    between atoms: _153  and  _154
REMARK   68  A    between atoms: _157  and  _159
REMARK   69  A    between atoms: _159  and  _160
REMARK   70  A    between atoms: _159  and  _162
REMARK   71  A    between atoms: _162  and  _163
REMARK   72  A    between atoms: _166  and  _168
REMARK   73  A    between atoms: _168  and  _169
REMARK   74  A    between atoms: _168  and  _171
REMARK   75  A    between atoms: _171  and  _172
REMARK   76  A    between atoms: _175  and  _177
REMARK   77  A    between atoms: _177  and  _178
REMARK   78  A    between atoms: _177  and  _180
REMARK   79  A    between atoms: _180  and  _181
REMARK   80  A    between atoms: _181  and  _182
REMARK   81  A    between atoms: _182  and  _183
REMARK   82  A    between atoms: _183  and  _184
REMARK   83  A    between atoms: _188  and  _190
REMARK   84  A    between atoms: _190  and  _191
REMARK   85  A    between atoms: _190  and  _193
REMARK   86  A    between atoms: _196  and  _198
REMARK   87  A    between atoms: _198  and  _199
REMARK   88  A    between atoms: _198  and  _201
REMARK   89  A    between atoms: _201  and  _202
REMARK   90  A    between atoms: _205  and  _207
REMARK   91  A    between atoms: _207  and  _208
REMARK   92  A    between atoms: _207  and  _210
REMARK   93  A    between atoms: _210  and  _211
REMARK   94  A    between atoms: _211  and  _212
REMARK   95  A    between atoms: _212  and  _213
REMARK   96  A    between atoms: _213  and  _214
REMARK   97  A    between atoms: _218  and  _220
REMARK   98  A    between atoms: _220  and  _221
REMARK   99  A    between atoms: _220  and  _223
REMARK  100  A    between atoms: _223  and  _224
REMARK  101  A    between atoms: _224  and  _225
REMARK  102  A    between atoms: _230  and  _232
REMARK  103  A    between atoms: _232  and  _233
REMARK  104  A    between atoms: _232  and  _235
REMARK  105  A    between atoms: _235  and  _236
REMARK  106  A    between atoms: _239  and  _241
REMARK  107  A    between atoms: _241  and  _242
REMARK  108  A    between atoms: _241  and  _244
REMARK  109  A    between atoms: _244  and  _245
REMARK  110  A    between atoms: _250  and  _252
REMARK  111  A    between atoms: _252  and  _253
REMARK  112  A    between atoms: _252  and  _255
REMARK  113  A    between atoms: _255  and  _256
REMARK  114  A    between atoms: _259  and  _261
REMARK  115  A    between atoms: _261  and  _262
REMARK  116  A    between atoms: _261  and  _264
REMARK  117  A    between atoms: _264  and  _265
REMARK  118  A    between atoms: _268  and  _270
REMARK  119  A    between atoms: _270  and  _271
REMARK  120  A    between atoms: _270  and  _273
REMARK  121  A    between atoms: _273  and  _274
REMARK  122  A    between atoms: _274  and  _275
REMARK  123  A    between atoms: _278  and  _280
REMARK  124  A    between atoms: _280  and  _281
REMARK  125  A    between atoms: _280  and  _283
REMARK  126  A    between atoms: _283  and  _284
REMARK  127  A    between atoms: _284  and  _285
REMARK  128  A    between atoms: _285  and  _286
REMARK  129  A    between atoms: _286  and  _287
REMARK  130  A    between atoms: _291  and  _293
REMARK  131  A    between atoms: _293  and  _294
REMARK  132  A    between atoms: _293  and  _296
REMARK  133  A    between atoms: _296  and  _297
REMARK  134  A    between atoms: _300  and  _302
REMARK  135  A    between atoms: _302  and  _303
REMARK  136  A    between atoms: _302  and  _305
REMARK  137  A    between atoms: _308  and  _310
REMARK  138  A    between atoms: _310  and  _311
REMARK  139  A    between atoms: _310  and  _313
REMARK  140  A    between atoms: _313  and  _314
REMARK  141  A    between atoms: _314  and  _315
REMARK  142  A    between atoms: _315  and  _316
REMARK  143  A    between atoms: _316  and  _317
REMARK  144  A    between atoms: _321  and  _323
REMARK  145  A    between atoms: _323  and  _324
REMARK  146  A    between atoms: _323  and  _326
REMARK  147  A    between atoms: _326  and  _327
REMARK  148  A    between atoms: _330  and  _332
REMARK  149  A    between atoms: _332  and  _333
REMARK  150  A    between atoms: _332  and  _335
REMARK  151  A    between atoms: _335  and  _336
REMARK  152  A    between atoms: _336  and  _337
REMARK  153  A    between atoms: _339  and  _341
REMARK  154  A    between atoms: _341  and  _342
REMARK  155  A    between atoms: _341  and  _344
REMARK  156  A    between atoms: _344  and  _345
REMARK  157  A    between atoms: _345  and  _346
REMARK  158  A    between atoms: _348  and  _350
REMARK  159  A    between atoms: _350  and  _351
REMARK  160  A    between atoms: _350  and  _353
REMARK  161  A    between atoms: _353  and  _354
REMARK  162  A    between atoms: _354  and  _355
REMARK  163  A    between atoms: _358  and  _360
REMARK  164  A    between atoms: _360  and  _361
REMARK  165  A    between atoms: _360  and  _363
REMARK  166  A    between atoms: _363  and  _364
REMARK  167  A    between atoms: _369  and  _370
REMARK  168  A    between atoms: _372  and  _374
REMARK  169  A    between atoms: _374  and  _375
REMARK  170  A    between atoms: _374  and  _377
REMARK  171  A    between atoms: _381  and  _382
REMARK  172  A    between atoms: _387  and  _389
REMARK  173  A    between atoms: _389  and  _390
REMARK  174  A    between atoms: _392  and  _394
REMARK  175  A    between atoms: _394  and  _395
REMARK  176  A    between atoms: _397  and  _399
REMARK  177  A    between atoms: _399  and  _400
REMARK  178  A    between atoms: _399  and  _402
REMARK  179  A    between atoms: _402  and  _403
REMARK  180  A    between atoms: _403  and  _404
REMARK  181  A    between atoms: _407  and  _409
REMARK  182  A    between atoms: _409  and  _410
REMARK  183  A    between atoms: _409  and  _412
REMARK  184  A    between atoms: _412  and  _413
REMARK  185  A    between atoms: _413  and  _414
REMARK  186  A    between atoms: _416  and  _418
REMARK  187  A    between atoms: _418  and  _419
REMARK  188  A    between atoms: _418  and  _421
REMARK  189  A    between atoms: _421  and  _422
REMARK  190  A    between atoms: _428  and  _430
REMARK  191  A    between atoms: _430  and  _431
REMARK  192  A    between atoms: _430  and  _433
REMARK  193  A    between atoms: _433  and  _434
REMARK  194  A    between atoms: _439  and  _440
REMARK  195  A    between atoms: _442  and  _444
REMARK  196  A    between atoms: _444  and  _445
REMARK  197  A    between atoms: _444  and  _447
REMARK  198  A    between atoms: _447  and  _448
REMARK  199  A    between atoms: _451  and  _453
REMARK  200  A    between atoms: _453  and  _454
REMARK  201  A    between atoms: _453  and  _456
REMARK  202  A    between atoms: _456  and  _457
REMARK  203  A    between atoms: _457  and  _458
REMARK  204  A    between atoms: _458  and  _459
REMARK  205  A    between atoms: _459  and  _460
REMARK  206  A    between atoms: _465  and  _466
REMARK  207  A    between atoms: _471  and  _473
REMARK  208  A    between atoms: _473  and  _474
REMARK  209  A    between atoms: _473  and  _476
REMARK  210  A    between atoms: _476  and  _477
REMARK  211  A    between atoms: _477  and  _478
REMARK  212  A    between atoms: _481  and  _483
REMARK  213  A    between atoms: _483  and  _484
REMARK  214  A    between atoms: _483  and  _486
REMARK  215  A    between atoms: _486  and  _487
REMARK  216  A    between atoms: _492  and  _494
REMARK  217  A    between atoms: _494  and  _495
REMARK  218  A    between atoms: _494  and  _497
REMARK  219  A    between atoms: _497  and  _498
REMARK  220  A    between atoms: _501  and  _503
REMARK  221  A    between atoms: _503  and  _504
REMARK  222  A    between atoms: _503  and  _506
REMARK  223  A    between atoms: _506  and  _507
REMARK  224  A    between atoms: _510  and  _512
REMARK  225  A    between atoms: _512  and  _513
REMARK  226  A    between atoms: _512  and  _515
REMARK  227  A    between atoms: _515  and  _516
REMARK  228  A    between atoms: _519  and  _521
REMARK  229  A    between atoms: _521  and  _522
REMARK  230  A    between atoms: _521  and  _524
REMARK  231  A    between atoms: _524  and  _525
REMARK  232  A    between atoms: _525  and  _526
REMARK  233  A    between atoms: _531  and  _533
REMARK  234  A    between atoms: _533  and  _534
REMARK  235  A    between atoms: _533  and  _536
REMARK  236  A    between atoms: _539  and  _541
REMARK  237  A    between atoms: _541  and  _542
REMARK  238  A    between atoms: _541  and  _544
REMARK  239  A    between atoms: _544  and  _545
REMARK  240  A    between atoms: _548  and  _550
REMARK  241  A    between atoms: _550  and  _551
REMARK  242  A    between atoms: _550  and  _553
REMARK  243  A    between atoms: _553  and  _554
REMARK  244  A    between atoms: _557  and  _559
REMARK  245  A    between atoms: _559  and  _560
REMARK  246  A    between atoms: _559  and  _562
REMARK  247  A    between atoms: _562  and  _563
REMARK  248  A    between atoms: _569  and  _571
REMARK  249  A    between atoms: _571  and  _572
REMARK  250  A    between atoms: _574  and  _576
REMARK  251  A    between atoms: _576  and  _577
REMARK  252  A    between atoms: _576  and  _579
REMARK  253  A    between atoms: _579  and  _580
REMARK  254  A    between atoms: _586  and  _588
REMARK  255  A    between atoms: _588  and  _589
REMARK  256  A    between atoms: _592  and  _594
REMARK  257  A    between atoms: _594  and  _595
REMARK  258  A    between atoms: _594  and  _597
REMARK  259  A    between atoms: _599  and  _601
REMARK  260  A    between atoms: _601  and  _602
REMARK  261  A    between atoms: _604  and  _606
REMARK  262  A    between atoms: _606  and  _607
REMARK  263  A    between atoms: _606  and  _609
REMARK  264  A    between atoms: _609  and  _610
REMARK  265  A    between atoms: _616  and  _618
REMARK  266  A    between atoms: _618  and  _619
REMARK  267  A    between atoms: _618  and  _621
REMARK  268  A    between atoms: _621  and  _622
REMARK  269  A    between atoms: _627  and  _628
REMARK                            x       y       z     vdW  Elec       q    Type
REMARK                         _______ _______ _______ _____ _____    ______ ____
ROOT
ATOM      1  CB  PHE A   1      10.477  31.616  31.082  0.00  0.00    +0.051 C 
ENDROOT
BRANCH   1   2
ATOM      2  CG  PHE A   1      11.412  30.517  30.639  0.00  0.00    -0.020 A 
ATOM      3  CD2 PHE A   1      12.785  30.710  30.653  0.00  0.00    -0.004 A 
ATOM      4  CE2 PHE A   1      13.636  29.724  30.223  0.00  0.00    -0.000 A 
ATOM      5  CZ  PHE A   1      13.158  28.497  29.822  0.00  0.00    -0.000 A 
ATOM      6  CE1 PHE A   1      11.789  28.261  29.846  0.00  0.00    -0.000 A 
ATOM      7  CD1 PHE A   1      10.918  29.276  30.232  0.00  0.00    -0.004 A 
ENDBRANCH   1   2
BRANCH   1   8
ATOM      8  CA  PHE A   1      10.142  32.638  29.983  0.00  0.00    +0.137 C 
BRANCH   8   9
ATOM      9  N   PHE A   1      11.303  33.418  29.600  0.00  0.00    -0.239 NA
ATOM     10  H   PHE A   1      11.719  34.082  30.284  0.00  0.00    +0.142 HD
ENDBRANCH   8   9
BRANCH   8  11
ATOM     11  C   PHE A   1       9.062  33.565  30.483  0.00  0.00    +0.224 C 
ATOM     12  O   PHE A   1       9.320  34.654  31.028  0.00  0.00    -0.287 OA
ENDBRANCH   8  11
ENDBRANCH   1   8
TORSDOF 4
REMARK  Name = ../refined-set-2016/1xh4/1xh4_pocket.pdb
REMARK  269 active torsions:
REMARK  status: ('A' for Active; 'I' for Inactive)
REMARK    1  A    between atoms: _1  and  _3
REMARK    2  A    between atoms: _3  and  _4
REMARK    3  A    between atoms: _3  and  _6
REMARK    4  A    between atoms: _6  and  _7
REMARK    5  A    between atoms: _10  and  _12
REMARK    6  A    between atoms: _12  and  _13
REMARK    7  A    between atoms: _12  and  _15
REMARK    8  A    between atoms: _15  and  _16
REMARK    9  A    between atoms: _19  and  _21
REMARK   10  A    between atoms: _21  and  _22
REMARK   11  A    between atoms: _24  and  _26
REMARK   12  A    between atoms: _26  and  _27
REMARK   13  A    between atoms: _26  and  _29
REMARK   14  A    between atoms: _29  and  _30
REMARK   15  A    between atoms: _33  and  _35
REMARK   16  A    between atoms: _35  and  _36
REMARK   17  A    between atoms: _38  and  _40
REMARK   18  A    between atoms: _40  and  _41
REMARK   19  A    between atoms: _40  and  _43
REMARK   20  A    between atoms: _43  and  _44
REMARK   21  A    between atoms: _46  and  _48
REMARK   22  A    between atoms: _48  and  _49
REMARK   23  A    between atoms: _48  and  _51
REMARK   24  A    between atoms: _51  and  _52
REMARK   25  A    between atoms: _58  and  _60
REMARK   26  A    between atoms: _60  and  _61
REMARK   27  A    between atoms: _63  and  _65
REMARK   28  A    between atoms: _65  and  _66
REMARK   29  A    between atoms: _65  and  _68
REMARK   30  A    between atoms: _68  and  _69
REMARK   31  A    between atoms: _69  and  _70
REMARK   32  A    between atoms: _70  and  _71
REMARK   33  A    between atoms: _80  and  _82
REMARK   34  A    between atoms: _82  and  _83
REMARK   35  A    between atoms: _82  and  _85
REMARK   36  A    between atoms: _88  and  _90
REMARK   37  A    between atoms: _90  and  _91
REMARK   38  A    between atoms: _90  and  _93
REMARK   39  A    between atoms: _93  and  _94
REMARK   40  A    between atoms: _94  and  _95
REMARK   41  A    between atoms: _97  and  _99
REMARK   42  A    between atoms: _99  and  _100
REMARK   43  A    between atoms: _99  and  _102
REMARK   44  A    between atoms: _102  and  _103
REMARK   45  A    between atoms: _106  and  _108
REMARK   46  A    between atoms: _108  and  _109
REMARK   47  A    between atoms: _108  and  _111
REMARK   48  A    between atoms: _111  and  _112
REMARK   49  A    between atoms: _117  and  _118
REMARK   50  A    between atoms: _120  and  _122
REMARK   51  A    between atoms: _122  and  _123
REMARK   52  A    between atoms: _126  and  _128
REMARK   53  A    between atoms: _128  and  _129
REMARK   54  A    between atoms: _128  and  _131
REMARK   55  A    between atoms: _131  and  _132
REMARK   56  A    between atoms: _132  and  _133
REMARK   57  A    between atoms: _135  and  _137
REMARK   58  A    between atoms: _137  and  _138
REMARK   59  A    between atoms: _137  and  _140
REMARK   60  A    between atoms: _140  and  _141
REMARK   61  A    between atoms: _141  and  _142
REMARK   62  A    between atoms: _142  and  _143
REMARK   63  A    between atoms: _143  and  _144
REMARK   64  A    between atoms: _148  and  _150
REMARK   65  A    between atoms: _150  and  _151
REMARK   66  A    between atoms: _150  and  _153
REMARK   67  A    between atoms: _153  and  _154
REMARK   68  A    between atoms: _157  and  _159
REMARK   69  A    between atoms: _159  and  _160
REMARK   70  A    between atoms: _159  and  _162
REMARK   71  A    between atoms: _162  and  _163
REMARK   72  A    between atoms: _166  and  _168
REMARK   73  A    between atoms: _168  and  _169
REMARK   74  A    between atoms: _168  and  _171
REMARK   75  A    between atoms: _171  and  _172
REMARK   76  A    between atoms: _175  and  _177
REMARK   77  A    between atoms: _177  and  _178
REMARK   78  A    between atoms: _177  and  _180
REMARK   79  A    between atoms: _180  and  _181
REMARK   80  A    between atoms: _181  and  _182
REMARK   81  A    between atoms: _182  and  _183
REMARK   82  A    between atoms: _183  and  _184
REMARK   83  A    between atoms: _188  and  _190
REMARK   84  A    between atoms: _190  and  _191
REMARK   85  A    between atoms: _190  and  _193
REMARK   86  A    between atoms: _196  and  _198
REMARK   87  A    between atoms: _198  and  _199
REMARK   88  A    between atoms: _198  and  _201
REMARK   89  A    between atoms: _201  and  _202
REMARK   90  A    between atoms: _205  and  _207
REMARK   91  A    between atoms: _207  and  _208
REMARK   92  A    between atoms: _207  and  _210
REMARK   93  A    between atoms: _210  and  _211
REMARK   94  A    between atoms: _211  and  _212
REMARK   95  A    between atoms: _212  and  _213
REMARK   96  A    between atoms: _213  and  _214
REMARK   97  A    between atoms: _218  and  _220
REMARK   98  A    between atoms: _220  and  _221
REMARK   99  A    between atoms: _220  and  _223
REMARK  100  A    between atoms: _223  and  _224
REMARK  101  A    between atoms: _224  and  _225
REMARK  102  A    between atoms: _230  and  _232
REMARK  103  A    between atoms: _232  and  _233
REMARK  104  A    between atoms: _232  and  _235
REMARK  105  A    between atoms: _235  and  _236
REMARK  106  A    between atoms: _239  and  _241
REMARK  107  A    between atoms: _241  and  _242
REMARK  108  A    between atoms: _241  and  _244
REMARK  109  A    between atoms: _244  and  _245
REMARK  110  A    between atoms: _250  and  _252
REMARK  111  A    between atoms: _252  and  _253
REMARK  112  A    between atoms: _252  and  _255
REMARK  113  A    between atoms: _255  and  _256
REMARK  114  A    between atoms: _259  and  _261
REMARK  115  A    between atoms: _261  and  _262
REMARK  116  A    between atoms: _261  and  _264
REMARK  117  A    between atoms: _264  and  _265
REMARK  118  A    between atoms: _268  and  _270
REMARK  119  A    between atoms: _270  and  _271
REMARK  120  A    between atoms: _270  and  _273
REMARK  121  A    between atoms: _273  and  _274
REMARK  122  A    between atoms: _274  and  _275
REMARK  123  A    between atoms: _278  and  _280
REMARK  124  A    between atoms: _280  and  _281
REMARK  125  A    between atoms: _280  and  _283
REMARK  126  A    between atoms: _283  and  _284
REMARK  127  A    between atoms: _284  and  _285
REMARK  128  A    between atoms: _285  and  _286
REMARK  129  A    between atoms: _286  and  _287
REMARK  130  A    between atoms: _291  and  _293
REMARK  131  A    between atoms: _293  and  _294
REMARK  132  A    between atoms: _293  and  _296
REMARK  133  A    between atoms: _296  and  _297
REMARK  134  A    between atoms: _300  and  _302
REMARK  135  A    between atoms: _302  and  _303
REMARK  136  A    between atoms: _302  and  _305
REMARK  137  A    between atoms: _308  and  _310
REMARK  138  A    between atoms: _310  and  _311
REMARK  139  A    between atoms: _310  and  _313
REMARK  140  A    between atoms: _313  and  _314
REMARK  141  A    between atoms: _314  and  _315
REMARK  142  A    between atoms: _315  and  _316
REMARK  143  A    between atoms: _316  and  _317
REMARK  144  A    between atoms: _321  and  _323
REMARK  145  A    between atoms: _323  and  _324
REMARK  146  A    between atoms: _323  and  _326
REMARK  147  A    between atoms: _326  and  _327
REMARK  148  A    between atoms: _330  and  _332
REMARK  149  A    between atoms: _332  and  _333
REMARK  150  A    between atoms: _332  and  _335
REMARK  151  A    between atoms: _335  and  _336
REMARK  152  A    between atoms: _336  and  _337
REMARK  153  A    between atoms: _339  and  _341
REMARK  154  A    between atoms: _341  and  _342
REMARK  155  A    between atoms: _341  and  _344
REMARK  156  A    between atoms: _344  and  _345
REMARK  157  A    between atoms: _345  and  _346
REMARK  158  A    between atoms: _348  and  _350
REMARK  159  A    between atoms: _350  and  _351
REMARK  160  A    between atoms: _350  and  _353
REMARK  161  A    between atoms: _353  and  _354
REMARK  162  A    between atoms: _354  and  _355
REMARK  163  A    between atoms: _358  and  _360
REMARK  164  A    between atoms: _360  and  _361
REMARK  165  A    between atoms: _360  and  _363
REMARK  166  A    between atoms: _363  and  _364
REMARK  167  A    between atoms: _369  and  _370
REMARK  168  A    between atoms: _372  and  _374
REMARK  169  A    between atoms: _374  and  _375
REMARK  170  A    between atoms: _374  and  _377
REMARK  171  A    between atoms: _381  and  _382
REMARK  172  A    between atoms: _387  and  _389
REMARK  173  A    between atoms: _389  and  _390
REMARK  174  A    between atoms: _392  and  _394
REMARK  175  A    between atoms: _394  and  _395
REMARK  176  A    between atoms: _397  and  _399
REMARK  177  A    between atoms: _399  and  _400
REMARK  178  A    between atoms: _399  and  _402
REMARK  179  A    between atoms: _402  and  _403
REMARK  180  A    between atoms: _403  and  _404
REMARK  181  A    between atoms: _407  and  _409
REMARK  182  A    between atoms: _409  and  _410
REMARK  183  A    between atoms: _409  and  _412
REMARK  184  A    between atoms: _412  and  _413
REMARK  185  A    between atoms: _413  and  _414
REMARK  186  A    between atoms: _416  and  _418
REMARK  187  A    between atoms: _418  and  _419
REMARK  188  A    between atoms: _418  and  _421
REMARK  189  A    between atoms: _421  and  _422
REMARK  190  A    between atoms: _428  and  _430
REMARK  191  A    between atoms: _430  and  _431
REMARK  192  A    between atoms: _430  and  _433
REMARK  193  A    between atoms: _433  and  _434
REMARK  194  A    between atoms: _439  and  _440
REMARK  195  A    between atoms: _442  and  _444
REMARK  196  A    between atoms: _444  and  _445
REMARK  197  A    between atoms: _444  and  _447
REMARK  198  A    between atoms: _447  and  _448
REMARK  199  A    between atoms: _451  and  _453
REMARK  200  A    between atoms: _453  and  _454
REMARK  201  A    between atoms: _453  and  _456
REMARK  202  A    between atoms: _456  and  _457
REMARK  203  A    between atoms: _457  and  _458
REMARK  204  A    between atoms: _458  and  _459
REMARK  205  A    between atoms: _459  and  _460
REMARK  206  A    between atoms: _465  and  _466
REMARK  207  A    between atoms: _471  and  _473
REMARK  208  A    between atoms: _473  and  _474
REMARK  209  A    between atoms: _473  and  _476
REMARK  210  A    between atoms: _476  and  _477
REMARK  211  A    between atoms: _477  and  _478
REMARK  212  A    between atoms: _481  and  _483
REMARK  213  A    between atoms: _483  and  _484
REMARK  214  A    between atoms: _483  and  _486
REMARK  215  A    between atoms: _486  and  _487
REMARK  216  A    between atoms: _492  and  _494
REMARK  217  A    between atoms: _494  and  _495
REMARK  218  A    between atoms: _494  and  _497
REMARK  219  A    between atoms: _497  and  _498
REMARK  220  A    between atoms: _501  and  _503
REMARK  221  A    between atoms: _503  and  _504
REMARK  222  A    between atoms: _503  and  _506
REMARK  223  A    between atoms: _506  and  _507
REMARK  224  A    between atoms: _510  and  _512
REMARK  225  A    between atoms: _512  and  _513
REMARK  226  A    between atoms: _512  and  _515
REMARK  227  A    between atoms: _515  and  _516
REMARK  228  A    between atoms: _519  and  _521
REMARK  229  A    between atoms: _521  and  _522
REMARK  230  A    between atoms: _521  and  _524
REMARK  231  A    between atoms: _524  and  _525
REMARK  232  A    between atoms: _525  and  _526
REMARK  233  A    between atoms: _531  and  _533
REMARK  234  A    between atoms: _533  and  _534
REMARK  235  A    between atoms: _533  and  _536
REMARK  236  A    between atoms: _539  and  _541
REMARK  237  A    between atoms: _541  and  _542
REMARK  238  A    between atoms: _541  and  _544
REMARK  239  A    between atoms: _544  and  _545
REMARK  240  A    between atoms: _548  and  _550
REMARK  241  A    between atoms: _550  and  _551
REMARK  242  A    between atoms: _550  and  _553
REMARK  243  A    between atoms: _553  and  _554
REMARK  244  A    between atoms: _557  and  _559
REMARK  245  A    between atoms: _559  and  _560
REMARK  246  A    between atoms: _559  and  _562
REMARK  247  A    between atoms: _562  and  _563
REMARK  248  A    between atoms: _569  and  _571
REMARK  249  A    between atoms: _571  and  _572
REMARK  250  A    between atoms: _574  and  _576
REMARK  251  A    between atoms: _576  and  _577
REMARK  252  A    between atoms: _576  and  _579
REMARK  253  A    between atoms: _579  and  _580
REMARK  254  A    between atoms: _586  and  _588
REMARK  255  A    between atoms: _588  and  _589
REMARK  256  A    between atoms: _592  and  _594
REMARK  257  A    between atoms: _594  and  _595
REMARK  258  A    between atoms: _594  and  _597
REMARK  259  A    between atoms: _599  and  _601
REMARK  260  A    between atoms: _601  and  _602
REMARK  261  A    between atoms: _604  and  _606
REMARK  262  A    between atoms: _606  and  _607
REMARK  263  A    between atoms: _606  and  _609
REMARK  264  A    between atoms: _609  and  _610
REMARK  265  A    between atoms: _616  and  _618
REMARK  266  A    between atoms: _618  and  _619
REMARK  267  A    between atoms: _618  and  _621
REMARK  268  A    between atoms: _621  and  _622
REMARK  269  A    between atoms: _627  and  _628
REMARK                            x       y       z     vdW  Elec       q    Type
REMARK                         _______ _______ _______ _____ _____    ______ ____
ROOT
ATOM      1  CG  TYR A   1       3.951  30.004  34.633  0.00  0.00    -0.020 A 
ATOM      2  CD2 TYR A   1       2.822  29.479  33.973  0.00  0.00    -0.001 A 
ATOM      3  CE2 TYR A   1       2.887  29.071  32.629  0.00  0.00    +0.036 A 
ATOM      4  CZ  TYR A   1       4.096  29.195  31.934  0.00  0.00    +0.134 A 
ATOM      5  CE1 TYR A   1       5.221  29.694  32.575  0.00  0.00    +0.036 A 
ATOM      6  CD1 TYR A   1       5.138  30.098  33.919  0.00  0.00    -0.001 A 
ENDROOT
BRANCH   4   7
ATOM      7  OH  TYR A   1       4.204  28.814  30.619  0.00  0.00    -0.506 OA
ATOM      8  HH  TYR A   1       5.128  28.977  30.304  0.00  0.00    +0.292 HD
ENDBRANCH   4   7
BRANCH   1   9
ATOM      9  CB  TYR A   1       3.892  30.409  36.105  0.00  0.00    +0.051 C 
BRANCH   9  10
ATOM     10  CA  TYR A   1       3.476  31.872  36.372  0.00  0.00    +0.137 C 
BRANCH  10  11
ATOM     11  N   TYR A   1       4.541  32.764  35.924  0.00  0.00    -0.239 NA
ATOM     12  H   TYR A   1       5.384  32.860  36.526  0.00  0.00    +0.142 HD
ENDBRANCH  10  11
BRANCH  10  13
ATOM     13  C   TYR A   1       3.220  32.041  37.852  0.00  0.00    +0.224 C 
ATOM     14  O   TYR A   1       4.116  32.435  38.597  0.00  0.00    -0.287 OA
ENDBRANCH  10  13
ENDBRANCH   9  10
ENDBRANCH   1   9
TORSDOF 5
REMARK  Name = ../refined-set-2016/1xh4/1xh4_pocket.pdb
REMARK  269 active torsions:
REMARK  status: ('A' for Active; 'I' for Inactive)
REMARK    1  A    between atoms: _1  and  _3
REMARK    2  A    between atoms: _3  and  _4
REMARK    3  A    between atoms: _3  and  _6
REMARK    4  A    between atoms: _6  and  _7
REMARK    5  A    between atoms: _10  and  _12
REMARK    6  A    between atoms: _12  and  _13
REMARK    7  A    between atoms: _12  and  _15
REMARK    8  A    between atoms: _15  and  _16
REMARK    9  A    between atoms: _19  and  _21
REMARK   10  A    between atoms: _21  and  _22
REMARK   11  A    between atoms: _24  and  _26
REMARK   12  A    between atoms: _26  and  _27
REMARK   13  A    between atoms: _26  and  _29
REMARK   14  A    between atoms: _29  and  _30
REMARK   15  A    between atoms: _33  and  _35
REMARK   16  A    between atoms: _35  and  _36
REMARK   17  A    between atoms: _38  and  _40
REMARK   18  A    between atoms: _40  and  _41
REMARK   19  A    between atoms: _40  and  _43
REMARK   20  A    between atoms: _43  and  _44
REMARK   21  A    between atoms: _46  and  _48
REMARK   22  A    between atoms: _48  and  _49
REMARK   23  A    between atoms: _48  and  _51
REMARK   24  A    between atoms: _51  and  _52
REMARK   25  A    between atoms: _58  and  _60
REMARK   26  A    between atoms: _60  and  _61
REMARK   27  A    between atoms: _63  and  _65
REMARK   28  A    between atoms: _65  and  _66
REMARK   29  A    between atoms: _65  and  _68
REMARK   30  A    between atoms: _68  and  _69
REMARK   31  A    between atoms: _69  and  _70
REMARK   32  A    between atoms: _70  and  _71
REMARK   33  A    between atoms: _80  and  _82
REMARK   34  A    between atoms: _82  and  _83
REMARK   35  A    between atoms: _82  and  _85
REMARK   36  A    between atoms: _88  and  _90
REMARK   37  A    between atoms: _90  and  _91
REMARK   38  A    between atoms: _90  and  _93
REMARK   39  A    between atoms: _93  and  _94
REMARK   40  A    between atoms: _94  and  _95
REMARK   41  A    between atoms: _97  and  _99
REMARK   42  A    between atoms: _99  and  _100
REMARK   43  A    between atoms: _99  and  _102
REMARK   44  A    between atoms: _102  and  _103
REMARK   45  A    between atoms: _106  and  _108
REMARK   46  A    between atoms: _108  and  _109
REMARK   47  A    between atoms: _108  and  _111
REMARK   48  A    between atoms: _111  and  _112
REMARK   49  A    between atoms: _117  and  _118
REMARK   50  A    between atoms: _120  and  _122
REMARK   51  A    between atoms: _122  and  _123
REMARK   52  A    between atoms: _126  and  _128
REMARK   53  A    between atoms: _128  and  _129
REMARK   54  A    between atoms: _128  and  _131
REMARK   55  A    between atoms: _131  and  _132
REMARK   56  A    between atoms: _132  and  _133
REMARK   57  A    between atoms: _135  and  _137
REMARK   58  A    between atoms: _137  and  _138
REMARK   59  A    between atoms: _137  and  _140
REMARK   60  A    between atoms: _140  and  _141
REMARK   61  A    between atoms: _141  and  _142
REMARK   62  A    between atoms: _142  and  _143
REMARK   63  A    between atoms: _143  and  _144
REMARK   64  A    between atoms: _148  and  _150
REMARK   65  A    between atoms: _150  and  _151
REMARK   66  A    between atoms: _150  and  _153
REMARK   67  A    between atoms: _153  and  _154
REMARK   68  A    between atoms: _157  and  _159
REMARK   69  A    between atoms: _159  and  _160
REMARK   70  A    between atoms: _159  and  _162
REMARK   71  A    between atoms: _162  and  _163
REMARK   72  A    between atoms: _166  and  _168
REMARK   73  A    between atoms: _168  and  _169
REMARK   74  A    between atoms: _168  and  _171
REMARK   75  A    between atoms: _171  and  _172
REMARK   76  A    between atoms: _175  and  _177
REMARK   77  A    between atoms: _177  and  _178
REMARK   78  A    between atoms: _177  and  _180
REMARK   79  A    between atoms: _180  and  _181
REMARK   80  A    between atoms: _181  and  _182
REMARK   81  A    between atoms: _182  and  _183
REMARK   82  A    between atoms: _183  and  _184
REMARK   83  A    between atoms: _188  and  _190
REMARK   84  A    between atoms: _190  and  _191
REMARK   85  A    between atoms: _190  and  _193
REMARK   86  A    between atoms: _196  and  _198
REMARK   87  A    between atoms: _198  and  _199
REMARK   88  A    between atoms: _198  and  _201
REMARK   89  A    between atoms: _201  and  _202
REMARK   90  A    between atoms: _205  and  _207
REMARK   91  A    between atoms: _207  and  _208
REMARK   92  A    between atoms: _207  and  _210
REMARK   93  A    between atoms: _210  and  _211
REMARK   94  A    between atoms: _211  and  _212
REMARK   95  A    between atoms: _212  and  _213
REMARK   96  A    between atoms: _213  and  _214
REMARK   97  A    between atoms: _218  and  _220
REMARK   98  A    between atoms: _220  and  _221
REMARK   99  A    between atoms: _220  and  _223
REMARK  100  A    between atoms: _223  and  _224
REMARK  101  A    between atoms: _224  and  _225
REMARK  102  A    between atoms: _230  and  _232
REMARK  103  A    between atoms: _232  and  _233
REMARK  104  A    between atoms: _232  and  _235
REMARK  105  A    between atoms: _235  and  _236
REMARK  106  A    between atoms: _239  and  _241
REMARK  107  A    between atoms: _241  and  _242
REMARK  108  A    between atoms: _241  and  _244
REMARK  109  A    between atoms: _244  and  _245
REMARK  110  A    between atoms: _250  and  _252
REMARK  111  A    between atoms: _252  and  _253
REMARK  112  A    between atoms: _252  and  _255
REMARK  113  A    between atoms: _255  and  _256
REMARK  114  A    between atoms: _259  and  _261
REMARK  115  A    between atoms: _261  and  _262
REMARK  116  A    between atoms: _261  and  _264
REMARK  117  A    between atoms: _264  and  _265
REMARK  118  A    between atoms: _268  and  _270
REMARK  119  A    between atoms: _270  and  _271
REMARK  120  A    between atoms: _270  and  _273
REMARK  121  A    between atoms: _273  and  _274
REMARK  122  A    between atoms: _274  and  _275
REMARK  123  A    between atoms: _278  and  _280
REMARK  124  A    between atoms: _280  and  _281
REMARK  125  A    between atoms: _280  and  _283
REMARK  126  A    between atoms: _283  and  _284
REMARK  127  A    between atoms: _284  and  _285
REMARK  128  A    between atoms: _285  and  _286
REMARK  129  A    between atoms: _286  and  _287
REMARK  130  A    between atoms: _291  and  _293
REMARK  131  A    between atoms: _293  and  _294
REMARK  132  A    between atoms: _293  and  _296
REMARK  133  A    between atoms: _296  and  _297
REMARK  134  A    between atoms: _300  and  _302
REMARK  135  A    between atoms: _302  and  _303
REMARK  136  A    between atoms: _302  and  _305
REMARK  137  A    between atoms: _308  and  _310
REMARK  138  A    between atoms: _310  and  _311
REMARK  139  A    between atoms: _310  and  _313
REMARK  140  A    between atoms: _313  and  _314
REMARK  141  A    between atoms: _314  and  _315
REMARK  142  A    between atoms: _315  and  _316
REMARK  143  A    between atoms: _316  and  _317
REMARK  144  A    between atoms: _321  and  _323
REMARK  145  A    between atoms: _323  and  _324
REMARK  146  A    between atoms: _323  and  _326
REMARK  147  A    between atoms: _326  and  _327
REMARK  148  A    between atoms: _330  and  _332
REMARK  149  A    between atoms: _332  and  _333
REMARK  150  A    between atoms: _332  and  _335
REMARK  151  A    between atoms: _335  and  _336
REMARK  152  A    between atoms: _336  and  _337
REMARK  153  A    between atoms: _339  and  _341
REMARK  154  A    between atoms: _341  and  _342
REMARK  155  A    between atoms: _341  and  _344
REMARK  156  A    between atoms: _344  and  _345
REMARK  157  A    between atoms: _345  and  _346
REMARK  158  A    between atoms: _348  and  _350
REMARK  159  A    between atoms: _350  and  _351
REMARK  160  A    between atoms: _350  and  _353
REMARK  161  A    between atoms: _353  and  _354
REMARK  162  A    between atoms: _354  and  _355
REMARK  163  A    between atoms: _358  and  _360
REMARK  164  A    between atoms: _360  and  _361
REMARK  165  A    between atoms: _360  and  _363
REMARK  166  A    between atoms: _363  and  _364
REMARK  167  A    between atoms: _369  and  _370
REMARK  168  A    between atoms: _372  and  _374
REMARK  169  A    between atoms: _374  and  _375
REMARK  170  A    between atoms: _374  and  _377
REMARK  171  A    between atoms: _381  and  _382
REMARK  172  A    between atoms: _387  and  _389
REMARK  173  A    between atoms: _389  and  _390
REMARK  174  A    between atoms: _392  and  _394
REMARK  175  A    between atoms: _394  and  _395
REMARK  176  A    between atoms: _397  and  _399
REMARK  177  A    between atoms: _399  and  _400
REMARK  178  A    between atoms: _399  and  _402
REMARK  179  A    between atoms: _402  and  _403
REMARK  180  A    between atoms: _403  and  _404
REMARK  181  A    between atoms: _407  and  _409
REMARK  182  A    between atoms: _409  and  _410
REMARK  183  A    between atoms: _409  and  _412
REMARK  184  A    between atoms: _412  and  _413
REMARK  185  A    between atoms: _413  and  _414
REMARK  186  A    between atoms: _416  and  _418
REMARK  187  A    between atoms: _418  and  _419
REMARK  188  A    between atoms: _418  and  _421
REMARK  189  A    between atoms: _421  and  _422
REMARK  190  A    between atoms: _428  and  _430
REMARK  191  A    between atoms: _430  and  _431
REMARK  192  A    between atoms: _430  and  _433
REMARK  193  A    between atoms: _433  and  _434
REMARK  194  A    between atoms: _439  and  _440
REMARK  195  A    between atoms: _442  and  _444
REMARK  196  A    between atoms: _444  and  _445
REMARK  197  A    between atoms: _444  and  _447
REMARK  198  A    between atoms: _447  and  _448
REMARK  199  A    between atoms: _451  and  _453
REMARK  200  A    between atoms: _453  and  _454
REMARK  201  A    between atoms: _453  and  _456
REMARK  202  A    between atoms: _456  and  _457
REMARK  203  A    between atoms: _457  and  _458
REMARK  204  A    between atoms: _458  and  _459
REMARK  205  A    between atoms: _459  and  _460
REMARK  206  A    between atoms: _465  and  _466
REMARK  207  A    between atoms: _471  and  _473
REMARK  208  A    between atoms: _473  and  _474
REMARK  209  A    between atoms: _473  and  _476
REMARK  210  A    between atoms: _476  and  _477
REMARK  211  A    between atoms: _477  and  _478
REMARK  212  A    between atoms: _481  and  _483
REMARK  213  A    between atoms: _483  and  _484
REMARK  214  A    between atoms: _483  and  _486
REMARK  215  A    between atoms: _486  and  _487
REMARK  216  A    between atoms: _492  and  _494
REMARK  217  A    between atoms: _494  and  _495
REMARK  218  A    between atoms: _494  and  _497
REMARK  219  A    between atoms: _497  and  _498
REMARK  220  A    between atoms: _501  and  _503
REMARK  221  A    between atoms: _503  and  _504
REMARK  222  A    between atoms: _503  and  _506
REMARK  223  A    between atoms: _506  and  _507
REMARK  224  A    between atoms: _510  and  _512
REMARK  225  A    between atoms: _512  and  _513
REMARK  226  A    between atoms: _512  and  _515
REMARK  227  A    between atoms: _515  and  _516
REMARK  228  A    between atoms: _519  and  _521
REMARK  229  A    between atoms: _521  and  _522
REMARK  230  A    between atoms: _521  and  _524
REMARK  231  A    between atoms: _524  and  _525
REMARK  232  A    between atoms: _525  and  _526
REMARK  233  A    between atoms: _531  and  _533
REMARK  234  A    between atoms: _533  and  _534
REMARK  235  A    between atoms: _533  and  _536
REMARK  236  A    between atoms: _539  and  _541
REMARK  237  A    between atoms: _541  and  _542
REMARK  238  A    between atoms: _541  and  _544
REMARK  239  A    between atoms: _544  and  _545
REMARK  240  A    between atoms: _548  and  _550
REMARK  241  A    between atoms: _550  and  _551
REMARK  242  A    between atoms: _550  and  _553
REMARK  243  A    between atoms: _553  and  _554
REMARK  244  A    between atoms: _557  and  _559
REMARK  245  A    between atoms: _559  and  _560
REMARK  246  A    between atoms: _559  and  _562
REMARK  247  A    between atoms: _562  and  _563
REMARK  248  A    between atoms: _569  and  _571
REMARK  249  A    between atoms: _571  and  _572
REMARK  250  A    between atoms: _574  and  _576
REMARK  251  A    between atoms: _576  and  _577
REMARK  252  A    between atoms: _576  and  _579
REMARK  253  A    between atoms: _579  and  _580
REMARK  254  A    between atoms: _586  and  _588
REMARK  255  A    between atoms: _588  and  _589
REMARK  256  A    between atoms: _592  and  _594
REMARK  257  A    between atoms: _594  and  _595
REMARK  258  A    between atoms: _594  and  _597
REMARK  259  A    between atoms: _599  and  _601
REMARK  260  A    between atoms: _601  and  _602
REMARK  261  A    between atoms: _604  and  _606
REMARK  262  A    between atoms: _606  and  _607
REMARK  263  A    between atoms: _606  and  _609
REMARK  264  A    between atoms: _609  and  _610
REMARK  265  A    between atoms: _616  and  _618
REMARK  266  A    between atoms: _618  and  _619
REMARK  267  A    between atoms: _618  and  _621
REMARK  268  A    between atoms: _621  and  _622
REMARK  269  A    between atoms: _627  and  _628
REMARK                            x       y       z     vdW  Elec       q    Type
REMARK                         _______ _______ _______ _____ _____    ______ ____
ROOT
ATOM      1  O   HOH     1       5.748  13.099  24.585  0.00  0.00    +0.000 OA
ENDROOT
TORSDOF 0
REMARK  Name = ../refined-set-2016/1xh4/1xh4_pocket.pdb
REMARK  269 active torsions:
REMARK  status: ('A' for Active; 'I' for Inactive)
REMARK    1  A    between atoms: _1  and  _3
REMARK    2  A    between atoms: _3  and  _4
REMARK    3  A    between atoms: _3  and  _6
REMARK    4  A    between atoms: _6  and  _7
REMARK    5  A    between atoms: _10  and  _12
REMARK    6  A    between atoms: _12  and  _13
REMARK    7  A    between atoms: _12  and  _15
REMARK    8  A    between atoms: _15  and  _16
REMARK    9  A    between atoms: _19  and  _21
REMARK   10  A    between atoms: _21  and  _22
REMARK   11  A    between atoms: _24  and  _26
REMARK   12  A    between atoms: _26  and  _27
REMARK   13  A    between atoms: _26  and  _29
REMARK   14  A    between atoms: _29  and  _30
REMARK   15  A    between atoms: _33  and  _35
REMARK   16  A    between atoms: _35  and  _36
REMARK   17  A    between atoms: _38  and  _40
REMARK   18  A    between atoms: _40  and  _41
REMARK   19  A    between atoms: _40  and  _43
REMARK   20  A    between atoms: _43  and  _44
REMARK   21  A    between atoms: _46  and  _48
REMARK   22  A    between atoms: _48  and  _49
REMARK   23  A    between atoms: _48  and  _51
REMARK   24  A    between atoms: _51  and  _52
REMARK   25  A    between atoms: _58  and  _60
REMARK   26  A    between atoms: _60  and  _61
REMARK   27  A    between atoms: _63  and  _65
REMARK   28  A    between atoms: _65  and  _66
REMARK   29  A    between atoms: _65  and  _68
REMARK   30  A    between atoms: _68  and  _69
REMARK   31  A    between atoms: _69  and  _70
REMARK   32  A    between atoms: _70  and  _71
REMARK   33  A    between atoms: _80  and  _82
REMARK   34  A    between atoms: _82  and  _83
REMARK   35  A    between atoms: _82  and  _85
REMARK   36  A    between atoms: _88  and  _90
REMARK   37  A    between atoms: _90  and  _91
REMARK   38  A    between atoms: _90  and  _93
REMARK   39  A    between atoms: _93  and  _94
REMARK   40  A    between atoms: _94  and  _95
REMARK   41  A    between atoms: _97  and  _99
REMARK   42  A    between atoms: _99  and  _100
REMARK   43  A    between atoms: _99  and  _102
REMARK   44  A    between atoms: _102  and  _103
REMARK   45  A    between atoms: _106  and  _108
REMARK   46  A    between atoms: _108  and  _109
REMARK   47  A    between atoms: _108  and  _111
REMARK   48  A    between atoms: _111  and  _112
REMARK   49  A    between atoms: _117  and  _118
REMARK   50  A    between atoms: _120  and  _122
REMARK   51  A    between atoms: _122  and  _123
REMARK   52  A    between atoms: _126  and  _128
REMARK   53  A    between atoms: _128  and  _129
REMARK   54  A    between atoms: _128  and  _131
REMARK   55  A    between atoms: _131  and  _132
REMARK   56  A    between atoms: _132  and  _133
REMARK   57  A    between atoms: _135  and  _137
REMARK   58  A    between atoms: _137  and  _138
REMARK   59  A    between atoms: _137  and  _140
REMARK   60  A    between atoms: _140  and  _141
REMARK   61  A    between atoms: _141  and  _142
REMARK   62  A    between atoms: _142  and  _143
REMARK   63  A    between atoms: _143  and  _144
REMARK   64  A    between atoms: _148  and  _150
REMARK   65  A    between atoms: _150  and  _151
REMARK   66  A    between atoms: _150  and  _153
REMARK   67  A    between atoms: _153  and  _154
REMARK   68  A    between atoms: _157  and  _159
REMARK   69  A    between atoms: _159  and  _160
REMARK   70  A    between atoms: _159  and  _162
REMARK   71  A    between atoms: _162  and  _163
REMARK   72  A    between atoms: _166  and  _168
REMARK   73  A    between atoms: _168  and  _169
REMARK   74  A    between atoms: _168  and  _171
REMARK   75  A    between atoms: _171  and  _172
REMARK   76  A    between atoms: _175  and  _177
REMARK   77  A    between atoms: _177  and  _178
REMARK   78  A    between atoms: _177  and  _180
REMARK   79  A    between atoms: _180  and  _181
REMARK   80  A    between atoms: _181  and  _182
REMARK   81  A    between atoms: _182  and  _183
REMARK   82  A    between atoms: _183  and  _184
REMARK   83  A    between atoms: _188  and  _190
REMARK   84  A    between atoms: _190  and  _191
REMARK   85  A    between atoms: _190  and  _193
REMARK   86  A    between atoms: _196  and  _198
REMARK   87  A    between atoms: _198  and  _199
REMARK   88  A    between atoms: _198  and  _201
REMARK   89  A    between atoms: _201  and  _202
REMARK   90  A    between atoms: _205  and  _207
REMARK   91  A    between atoms: _207  and  _208
REMARK   92  A    between atoms: _207  and  _210
REMARK   93  A    between atoms: _210  and  _211
REMARK   94  A    between atoms: _211  and  _212
REMARK   95  A    between atoms: _212  and  _213
REMARK   96  A    between atoms: _213  and  _214
REMARK   97  A    between atoms: _218  and  _220
REMARK   98  A    between atoms: _220  and  _221
REMARK   99  A    between atoms: _220  and  _223
REMARK  100  A    between atoms: _223  and  _224
REMARK  101  A    between atoms: _224  and  _225
REMARK  102  A    between atoms: _230  and  _232
REMARK  103  A    between atoms: _232  and  _233
REMARK  104  A    between atoms: _232  and  _235
REMARK  105  A    between atoms: _235  and  _236
REMARK  106  A    between atoms: _239  and  _241
REMARK  107  A    between atoms: _241  and  _242
REMARK  108  A    between atoms: _241  and  _244
REMARK  109  A    between atoms: _244  and  _245
REMARK  110  A    between atoms: _250  and  _252
REMARK  111  A    between atoms: _252  and  _253
REMARK  112  A    between atoms: _252  and  _255
REMARK  113  A    between atoms: _255  and  _256
REMARK  114  A    between atoms: _259  and  _261
REMARK  115  A    between atoms: _261  and  _262
REMARK  116  A    between atoms: _261  and  _264
REMARK  117  A    between atoms: _264  and  _265
REMARK  118  A    between atoms: _268  and  _270
REMARK  119  A    between atoms: _270  and  _271
REMARK  120  A    between atoms: _270  and  _273
REMARK  121  A    between atoms: _273  and  _274
REMARK  122  A    between atoms: _274  and  _275
REMARK  123  A    between atoms: _278  and  _280
REMARK  124  A    between atoms: _280  and  _281
REMARK  125  A    between atoms: _280  and  _283
REMARK  126  A    between atoms: _283  and  _284
REMARK  127  A    between atoms: _284  and  _285
REMARK  128  A    between atoms: _285  and  _286
REMARK  129  A    between atoms: _286  and  _287
REMARK  130  A    between atoms: _291  and  _293
REMARK  131  A    between atoms: _293  and  _294
REMARK  132  A    between atoms: _293  and  _296
REMARK  133  A    between atoms: _296  and  _297
REMARK  134  A    between atoms: _300  and  _302
REMARK  135  A    between atoms: _302  and  _303
REMARK  136  A    between atoms: _302  and  _305
REMARK  137  A    between atoms: _308  and  _310
REMARK  138  A    between atoms: _310  and  _311
REMARK  139  A    between atoms: _310  and  _313
REMARK  140  A    between atoms: _313  and  _314
REMARK  141  A    between atoms: _314  and  _315
REMARK  142  A    between atoms: _315  and  _316
REMARK  143  A    between atoms: _316  and  _317
REMARK  144  A    between atoms: _321  and  _323
REMARK  145  A    between atoms: _323  and  _324
REMARK  146  A    between atoms: _323  and  _326
REMARK  147  A    between atoms: _326  and  _327
REMARK  148  A    between atoms: _330  and  _332
REMARK  149  A    between atoms: _332  and  _333
REMARK  150  A    between atoms: _332  and  _335
REMARK  151  A    between atoms: _335  and  _336
REMARK  152  A    between atoms: _336  and  _337
REMARK  153  A    between atoms: _339  and  _341
REMARK  154  A    between atoms: _341  and  _342
REMARK  155  A    between atoms: _341  and  _344
REMARK  156  A    between atoms: _344  and  _345
REMARK  157  A    between atoms: _345  and  _346
REMARK  158  A    between atoms: _348  and  _350
REMARK  159  A    between atoms: _350  and  _351
REMARK  160  A    between atoms: _350  and  _353
REMARK  161  A    between atoms: _353  and  _354
REMARK  162  A    between atoms: _354  and  _355
REMARK  163  A    between atoms: _358  and  _360
REMARK  164  A    between atoms: _360  and  _361
REMARK  165  A    between atoms: _360  and  _363
REMARK  166  A    between atoms: _363  and  _364
REMARK  167  A    between atoms: _369  and  _370
REMARK  168  A    between atoms: _372  and  _374
REMARK  169  A    between atoms: _374  and  _375
REMARK  170  A    between atoms: _374  and  _377
REMARK  171  A    between atoms: _381  and  _382
REMARK  172  A    between atoms: _387  and  _389
REMARK  173  A    between atoms: _389  and  _390
REMARK  174  A    between atoms: _392  and  _394
REMARK  175  A    between atoms: _394  and  _395
REMARK  176  A    between atoms: _397  and  _399
REMARK  177  A    between atoms: _399  and  _400
REMARK  178  A    between atoms: _399  and  _402
REMARK  179  A    between atoms: _402  and  _403
REMARK  180  A    between atoms: _403  and  _404
REMARK  181  A    between atoms: _407  and  _409
REMARK  182  A    between atoms: _409  and  _410
REMARK  183  A    between atoms: _409  and  _412
REMARK  184  A    between atoms: _412  and  _413
REMARK  185  A    between atoms: _413  and  _414
REMARK  186  A    between atoms: _416  and  _418
REMARK  187  A    between atoms: _418  and  _419
REMARK  188  A    between atoms: _418  and  _421
REMARK  189  A    between atoms: _421  and  _422
REMARK  190  A    between atoms: _428  and  _430
REMARK  191  A    between atoms: _430  and  _431
REMARK  192  A    between atoms: _430  and  _433
REMARK  193  A    between atoms: _433  and  _434
REMARK  194  A    between atoms: _439  and  _440
REMARK  195  A    between atoms: _442  and  _444
REMARK  196  A    between atoms: _444  and  _445
REMARK  197  A    between atoms: _444  and  _447
REMARK  198  A    between atoms: _447  and  _448
REMARK  199  A    between atoms: _451  and  _453
REMARK  200  A    between atoms: _453  and  _454
REMARK  201  A    between atoms: _453  and  _456
REMARK  202  A    between atoms: _456  and  _457
REMARK  203  A    between atoms: _457  and  _458
REMARK  204  A    between atoms: _458  and  _459
REMARK  205  A    between atoms: _459  and  _460
REMARK  206  A    between atoms: _465  and  _466
REMARK  207  A    between atoms: _471  and  _473
REMARK  208  A    between atoms: _473  and  _474
REMARK  209  A    between atoms: _473  and  _476
REMARK  210  A    between atoms: _476  and  _477
REMARK  211  A    between atoms: _477  and  _478
REMARK  212  A    between atoms: _481  and  _483
REMARK  213  A    between atoms: _483  and  _484
REMARK  214  A    between atoms: _483  and  _486
REMARK  215  A    between atoms: _486  and  _487
REMARK  216  A    between atoms: _492  and  _494
REMARK  217  A    between atoms: _494  and  _495
REMARK  218  A    between atoms: _494  and  _497
REMARK  219  A    between atoms: _497  and  _498
REMARK  220  A    between atoms: _501  and  _503
REMARK  221  A    between atoms: _503  and  _504
REMARK  222  A    between atoms: _503  and  _506
REMARK  223  A    between atoms: _506  and  _507
REMARK  224  A    between atoms: _510  and  _512
REMARK  225  A    between atoms: _512  and  _513
REMARK  226  A    between atoms: _512  and  _515
REMARK  227  A    between atoms: _515  and  _516
REMARK  228  A    between atoms: _519  and  _521
REMARK  229  A    between atoms: _521  and  _522
REMARK  230  A    between atoms: _521  and  _524
REMARK  231  A    between atoms: _524  and  _525
REMARK  232  A    between atoms: _525  and  _526
REMARK  233  A    between atoms: _531  and  _533
REMARK  234  A    between atoms: _533  and  _534
REMARK  235  A    between atoms: _533  and  _536
REMARK  236  A    between atoms: _539  and  _541
REMARK  237  A    between atoms: _541  and  _542
REMARK  238  A    between atoms: _541  and  _544
REMARK  239  A    between atoms: _544  and  _545
REMARK  240  A    between atoms: _548  and  _550
REMARK  241  A    between atoms: _550  and  _551
REMARK  242  A    between atoms: _550  and  _553
REMARK  243  A    between atoms: _553  and  _554
REMARK  244  A    between atoms: _557  and  _559
REMARK  245  A    between atoms: _559  and  _560
REMARK  246  A    between atoms: _559  and  _562
REMARK  247  A    between atoms: _562  and  _563
REMARK  248  A    between atoms: _569  and  _571
REMARK  249  A    between atoms: _571  and  _572
REMARK  250  A    between atoms: _574  and  _576
REMARK  251  A    between atoms: _576  and  _577
REMARK  252  A    between atoms: _576  and  _579
REMARK  253  A    between atoms: _579  and  _580
REMARK  254  A    between atoms: _586  and  _588
REMARK  255  A    between atoms: _588  and  _589
REMARK  256  A    between atoms: _592  and  _594
REMARK  257  A    between atoms: _594  and  _595
REMARK  258  A    between atoms: _594  and  _597
REMARK  259  A    between atoms: _599  and  _601
REMARK  260  A    between atoms: _601  and  _602
REMARK  261  A    between atoms: _604  and  _606
REMARK  262  A    between atoms: _606  and  _607
REMARK  263  A    between atoms: _606  and  _609
REMARK  264  A    between atoms: _609  and  _610
REMARK  265  A    between atoms: _616  and  _618
REMARK  266  A    between atoms: _618  and  _619
REMARK  267  A    between atoms: _618  and  _621
REMARK  268  A    between atoms: _621  and  _622
REMARK  269  A    between atoms: _627  and  _628
REMARK                            x       y       z     vdW  Elec       q    Type
REMARK                         _______ _______ _______ _____ _____    ______ ____
ROOT
ATOM      1  O   HOH     1      -1.602   6.635  31.295  0.00  0.00    +0.000 OA
ENDROOT
TORSDOF 0
REMARK  Name = ../refined-set-2016/1xh4/1xh4_pocket.pdb
REMARK  269 active torsions:
REMARK  status: ('A' for Active; 'I' for Inactive)
REMARK    1  A    between atoms: _1  and  _3
REMARK    2  A    between atoms: _3  and  _4
REMARK    3  A    between atoms: _3  and  _6
REMARK    4  A    between atoms: _6  and  _7
REMARK    5  A    between atoms: _10  and  _12
REMARK    6  A    between atoms: _12  and  _13
REMARK    7  A    between atoms: _12  and  _15
REMARK    8  A    between atoms: _15  and  _16
REMARK    9  A    between atoms: _19  and  _21
REMARK   10  A    between atoms: _21  and  _22
REMARK   11  A    between atoms: _24  and  _26
REMARK   12  A    between atoms: _26  and  _27
REMARK   13  A    between atoms: _26  and  _29
REMARK   14  A    between atoms: _29  and  _30
REMARK   15  A    between atoms: _33  and  _35
REMARK   16  A    between atoms: _35  and  _36
REMARK   17  A    between atoms: _38  and  _40
REMARK   18  A    between atoms: _40  and  _41
REMARK   19  A    between atoms: _40  and  _43
REMARK   20  A    between atoms: _43  and  _44
REMARK   21  A    between atoms: _46  and  _48
REMARK   22  A    between atoms: _48  and  _49
REMARK   23  A    between atoms: _48  and  _51
REMARK   24  A    between atoms: _51  and  _52
REMARK   25  A    between atoms: _58  and  _60
REMARK   26  A    between atoms: _60  and  _61
REMARK   27  A    between atoms: _63  and  _65
REMARK   28  A    between atoms: _65  and  _66
REMARK   29  A    between atoms: _65  and  _68
REMARK   30  A    between atoms: _68  and  _69
REMARK   31  A    between atoms: _69  and  _70
REMARK   32  A    between atoms: _70  and  _71
REMARK   33  A    between atoms: _80  and  _82
REMARK   34  A    between atoms: _82  and  _83
REMARK   35  A    between atoms: _82  and  _85
REMARK   36  A    between atoms: _88  and  _90
REMARK   37  A    between atoms: _90  and  _91
REMARK   38  A    between atoms: _90  and  _93
REMARK   39  A    between atoms: _93  and  _94
REMARK   40  A    between atoms: _94  and  _95
REMARK   41  A    between atoms: _97  and  _99
REMARK   42  A    between atoms: _99  and  _100
REMARK   43  A    between atoms: _99  and  _102
REMARK   44  A    between atoms: _102  and  _103
REMARK   45  A    between atoms: _106  and  _108
REMARK   46  A    between atoms: _108  and  _109
REMARK   47  A    between atoms: _108  and  _111
REMARK   48  A    between atoms: _111  and  _112
REMARK   49  A    between atoms: _117  and  _118
REMARK   50  A    between atoms: _120  and  _122
REMARK   51  A    between atoms: _122  and  _123
REMARK   52  A    between atoms: _126  and  _128
REMARK   53  A    between atoms: _128  and  _129
REMARK   54  A    between atoms: _128  and  _131
REMARK   55  A    between atoms: _131  and  _132
REMARK   56  A    between atoms: _132  and  _133
REMARK   57  A    between atoms: _135  and  _137
REMARK   58  A    between atoms: _137  and  _138
REMARK   59  A    between atoms: _137  and  _140
REMARK   60  A    between atoms: _140  and  _141
REMARK   61  A    between atoms: _141  and  _142
REMARK   62  A    between atoms: _142  and  _143
REMARK   63  A    between atoms: _143  and  _144
REMARK   64  A    between atoms: _148  and  _150
REMARK   65  A    between atoms: _150  and  _151
REMARK   66  A    between atoms: _150  and  _153
REMARK   67  A    between atoms: _153  and  _154
REMARK   68  A    between atoms: _157  and  _159
REMARK   69  A    between atoms: _159  and  _160
REMARK   70  A    between atoms: _159  and  _162
REMARK   71  A    between atoms: _162  and  _163
REMARK   72  A    between atoms: _166  and  _168
REMARK   73  A    between atoms: _168  and  _169
REMARK   74  A    between atoms: _168  and  _171
REMARK   75  A    between atoms: _171  and  _172
REMARK   76  A    between atoms: _175  and  _177
REMARK   77  A    between atoms: _177  and  _178
REMARK   78  A    between atoms: _177  and  _180
REMARK   79  A    between atoms: _180  and  _181
REMARK   80  A    between atoms: _181  and  _182
REMARK   81  A    between atoms: _182  and  _183
REMARK   82  A    between atoms: _183  and  _184
REMARK   83  A    between atoms: _188  and  _190
REMARK   84  A    between atoms: _190  and  _191
REMARK   85  A    between atoms: _190  and  _193
REMARK   86  A    between atoms: _196  and  _198
REMARK   87  A    between atoms: _198  and  _199
REMARK   88  A    between atoms: _198  and  _201
REMARK   89  A    between atoms: _201  and  _202
REMARK   90  A    between atoms: _205  and  _207
REMARK   91  A    between atoms: _207  and  _208
REMARK   92  A    between atoms: _207  and  _210
REMARK   93  A    between atoms: _210  and  _211
REMARK   94  A    between atoms: _211  and  _212
REMARK   95  A    between atoms: _212  and  _213
REMARK   96  A    between atoms: _213  and  _214
REMARK   97  A    between atoms: _218  and  _220
REMARK   98  A    between atoms: _220  and  _221
REMARK   99  A    between atoms: _220  and  _223
REMARK  100  A    between atoms: _223  and  _224
REMARK  101  A    between atoms: _224  and  _225
REMARK  102  A    between atoms: _230  and  _232
REMARK  103  A    between atoms: _232  and  _233
REMARK  104  A    between atoms: _232  and  _235
REMARK  105  A    between atoms: _235  and  _236
REMARK  106  A    between atoms: _239  and  _241
REMARK  107  A    between atoms: _241  and  _242
REMARK  108  A    between atoms: _241  and  _244
REMARK  109  A    between atoms: _244  and  _245
REMARK  110  A    between atoms: _250  and  _252
REMARK  111  A    between atoms: _252  and  _253
REMARK  112  A    between atoms: _252  and  _255
REMARK  113  A    between atoms: _255  and  _256
REMARK  114  A    between atoms: _259  and  _261
REMARK  115  A    between atoms: _261  and  _262
REMARK  116  A    between atoms: _261  and  _264
REMARK  117  A    between atoms: _264  and  _265
REMARK  118  A    between atoms: _268  and  _270
REMARK  119  A    between atoms: _270  and  _271
REMARK  120  A    between atoms: _270  and  _273
REMARK  121  A    between atoms: _273  and  _274
REMARK  122  A    between atoms: _274  and  _275
REMARK  123  A    between atoms: _278  and  _280
REMARK  124  A    between atoms: _280  and  _281
REMARK  125  A    between atoms: _280  and  _283
REMARK  126  A    between atoms: _283  and  _284
REMARK  127  A    between atoms: _284  and  _285
REMARK  128  A    between atoms: _285  and  _286
REMARK  129  A    between atoms: _286  and  _287
REMARK  130  A    between atoms: _291  and  _293
REMARK  131  A    between atoms: _293  and  _294
REMARK  132  A    between atoms: _293  and  _296
REMARK  133  A    between atoms: _296  and  _297
REMARK  134  A    between atoms: _300  and  _302
REMARK  135  A    between atoms: _302  and  _303
REMARK  136  A    between atoms: _302  and  _305
REMARK  137  A    between atoms: _308  and  _310
REMARK  138  A    between atoms: _310  and  _311
REMARK  139  A    between atoms: _310  and  _313
REMARK  140  A    between atoms: _313  and  _314
REMARK  141  A    between atoms: _314  and  _315
REMARK  142  A    between atoms: _315  and  _316
REMARK  143  A    between atoms: _316  and  _317
REMARK  144  A    between atoms: _321  and  _323
REMARK  145  A    between atoms: _323  and  _324
REMARK  146  A    between atoms: _323  and  _326
REMARK  147  A    between atoms: _326  and  _327
REMARK  148  A    between atoms: _330  and  _332
REMARK  149  A    between atoms: _332  and  _333
REMARK  150  A    between atoms: _332  and  _335
REMARK  151  A    between atoms: _335  and  _336
REMARK  152  A    between atoms: _336  and  _337
REMARK  153  A    between atoms: _339  and  _341
REMARK  154  A    between atoms: _341  and  _342
REMARK  155  A    between atoms: _341  and  _344
REMARK  156  A    between atoms: _344  and  _345
REMARK  157  A    between atoms: _345  and  _346
REMARK  158  A    between atoms: _348  and  _350
REMARK  159  A    between atoms: _350  and  _351
REMARK  160  A    between atoms: _350  and  _353
REMARK  161  A    between atoms: _353  and  _354
REMARK  162  A    between atoms: _354  and  _355
REMARK  163  A    between atoms: _358  and  _360
REMARK  164  A    between atoms: _360  and  _361
REMARK  165  A    between atoms: _360  and  _363
REMARK  166  A    between atoms: _363  and  _364
REMARK  167  A    between atoms: _369  and  _370
REMARK  168  A    between atoms: _372  and  _374
REMARK  169  A    between atoms: _374  and  _375
REMARK  170  A    between atoms: _374  and  _377
REMARK  171  A    between atoms: _381  and  _382
REMARK  172  A    between atoms: _387  and  _389
REMARK  173  A    between atoms: _389  and  _390
REMARK  174  A    between atoms: _392  and  _394
REMARK  175  A    between atoms: _394  and  _395
REMARK  176  A    between atoms: _397  and  _399
REMARK  177  A    between atoms: _399  and  _400
REMARK  178  A    between atoms: _399  and  _402
REMARK  179  A    between atoms: _402  and  _403
REMARK  180  A    between atoms: _403  and  _404
REMARK  181  A    between atoms: _407  and  _409
REMARK  182  A    between atoms: _409  and  _410
REMARK  183  A    between atoms: _409  and  _412
REMARK  184  A    between atoms: _412  and  _413
REMARK  185  A    between atoms: _413  and  _414
REMARK  186  A    between atoms: _416  and  _418
REMARK  187  A    between atoms: _418  and  _419
REMARK  188  A    between atoms: _418  and  _421
REMARK  189  A    between atoms: _421  and  _422
REMARK  190  A    between atoms: _428  and  _430
REMARK  191  A    between atoms: _430  and  _431
REMARK  192  A    between atoms: _430  and  _433
REMARK  193  A    between atoms: _433  and  _434
REMARK  194  A    between atoms: _439  and  _440
REMARK  195  A    between atoms: _442  and  _444
REMARK  196  A    between atoms: _444  and  _445
REMARK  197  A    between atoms: _444  and  _447
REMARK  198  A    between atoms: _447  and  _448
REMARK  199  A    between atoms: _451  and  _453
REMARK  200  A    between atoms: _453  and  _454
REMARK  201  A    between atoms: _453  and  _456
REMARK  202  A    between atoms: _456  and  _457
REMARK  203  A    between atoms: _457  and  _458
REMARK  204  A    between atoms: _458  and  _459
REMARK  205  A    between atoms: _459  and  _460
REMARK  206  A    between atoms: _465  and  _466
REMARK  207  A    between atoms: _471  and  _473
REMARK  208  A    between atoms: _473  and  _474
REMARK  209  A    between atoms: _473  and  _476
REMARK  210  A    between atoms: _476  and  _477
REMARK  211  A    between atoms: _477  and  _478
REMARK  212  A    between atoms: _481  and  _483
REMARK  213  A    between atoms: _483  and  _484
REMARK  214  A    between atoms: _483  and  _486
REMARK  215  A    between atoms: _486  and  _487
REMARK  216  A    between atoms: _492  and  _494
REMARK  217  A    between atoms: _494  and  _495
REMARK  218  A    between atoms: _494  and  _497
REMARK  219  A    between atoms: _497  and  _498
REMARK  220  A    between atoms: _501  and  _503
REMARK  221  A    between atoms: _503  and  _504
REMARK  222  A    between atoms: _503  and  _506
REMARK  223  A    between atoms: _506  and  _507
REMARK  224  A    between atoms: _510  and  _512
REMARK  225  A    between atoms: _512  and  _513
REMARK  226  A    between atoms: _512  and  _515
REMARK  227  A    between atoms: _515  and  _516
REMARK  228  A    between atoms: _519  and  _521
REMARK  229  A    between atoms: _521  and  _522
REMARK  230  A    between atoms: _521  and  _524
REMARK  231  A    between atoms: _524  and  _525
REMARK  232  A    between atoms: _525  and  _526
REMARK  233  A    between atoms: _531  and  _533
REMARK  234  A    between atoms: _533  and  _534
REMARK  235  A    between atoms: _533  and  _536
REMARK  236  A    between atoms: _539  and  _541
REMARK  237  A    between atoms: _541  and  _542
REMARK  238  A    between atoms: _541  and  _544
REMARK  239  A    between atoms: _544  and  _545
REMARK  240  A    between atoms: _548  and  _550
REMARK  241  A    between atoms: _550  and  _551
REMARK  242  A    between atoms: _550  and  _553
REMARK  243  A    between atoms: _553  and  _554
REMARK  244  A    between atoms: _557  and  _559
REMARK  245  A    between atoms: _559  and  _560
REMARK  246  A    between atoms: _559  and  _562
REMARK  247  A    between atoms: _562  and  _563
REMARK  248  A    between atoms: _569  and  _571
REMARK  249  A    between atoms: _571  and  _572
REMARK  250  A    between atoms: _574  and  _576
REMARK  251  A    between atoms: _576  and  _577
REMARK  252  A    between atoms: _576  and  _579
REMARK  253  A    between atoms: _579  and  _580
REMARK  254  A    between atoms: _586  and  _588
REMARK  255  A    between atoms: _588  and  _589
REMARK  256  A    between atoms: _592  and  _594
REMARK  257  A    between atoms: _594  and  _595
REMARK  258  A    between atoms: _594  and  _597
REMARK  259  A    between atoms: _599  and  _601
REMARK  260  A    between atoms: _601  and  _602
REMARK  261  A    between atoms: _604  and  _606
REMARK  262  A    between atoms: _606  and  _607
REMARK  263  A    between atoms: _606  and  _609
REMARK  264  A    between atoms: _609  and  _610
REMARK  265  A    between atoms: _616  and  _618
REMARK  266  A    between atoms: _618  and  _619
REMARK  267  A    between atoms: _618  and  _621
REMARK  268  A    between atoms: _621  and  _622
REMARK  269  A    between atoms: _627  and  _628
REMARK                            x       y       z     vdW  Elec       q    Type
REMARK                         _______ _______ _______ _____ _____    ______ ____
ROOT
ATOM      1  O   HOH     1       9.240  26.049  29.733  0.00  0.00    +0.000 OA
ENDROOT
TORSDOF 0
REMARK  Name = ../refined-set-2016/1xh4/1xh4_pocket.pdb
REMARK  269 active torsions:
REMARK  status: ('A' for Active; 'I' for Inactive)
REMARK    1  A    between atoms: _1  and  _3
REMARK    2  A    between atoms: _3  and  _4
REMARK    3  A    between atoms: _3  and  _6
REMARK    4  A    between atoms: _6  and  _7
REMARK    5  A    between atoms: _10  and  _12
REMARK    6  A    between atoms: _12  and  _13
REMARK    7  A    between atoms: _12  and  _15
REMARK    8  A    between atoms: _15  and  _16
REMARK    9  A    between atoms: _19  and  _21
REMARK   10  A    between atoms: _21  and  _22
REMARK   11  A    between atoms: _24  and  _26
REMARK   12  A    between atoms: _26  and  _27
REMARK   13  A    between atoms: _26  and  _29
REMARK   14  A    between atoms: _29  and  _30
REMARK   15  A    between atoms: _33  and  _35
REMARK   16  A    between atoms: _35  and  _36
REMARK   17  A    between atoms: _38  and  _40
REMARK   18  A    between atoms: _40  and  _41
REMARK   19  A    between atoms: _40  and  _43
REMARK   20  A    between atoms: _43  and  _44
REMARK   21  A    between atoms: _46  and  _48
REMARK   22  A    between atoms: _48  and  _49
REMARK   23  A    between atoms: _48  and  _51
REMARK   24  A    between atoms: _51  and  _52
REMARK   25  A    between atoms: _58  and  _60
REMARK   26  A    between atoms: _60  and  _61
REMARK   27  A    between atoms: _63  and  _65
REMARK   28  A    between atoms: _65  and  _66
REMARK   29  A    between atoms: _65  and  _68
REMARK   30  A    between atoms: _68  and  _69
REMARK   31  A    between atoms: _69  and  _70
REMARK   32  A    between atoms: _70  and  _71
REMARK   33  A    between atoms: _80  and  _82
REMARK   34  A    between atoms: _82  and  _83
REMARK   35  A    between atoms: _82  and  _85
REMARK   36  A    between atoms: _88  and  _90
REMARK   37  A    between atoms: _90  and  _91
REMARK   38  A    between atoms: _90  and  _93
REMARK   39  A    between atoms: _93  and  _94
REMARK   40  A    between atoms: _94  and  _95
REMARK   41  A    between atoms: _97  and  _99
REMARK   42  A    between atoms: _99  and  _100
REMARK   43  A    between atoms: _99  and  _102
REMARK   44  A    between atoms: _102  and  _103
REMARK   45  A    between atoms: _106  and  _108
REMARK   46  A    between atoms: _108  and  _109
REMARK   47  A    between atoms: _108  and  _111
REMARK   48  A    between atoms: _111  and  _112
REMARK   49  A    between atoms: _117  and  _118
REMARK   50  A    between atoms: _120  and  _122
REMARK   51  A    between atoms: _122  and  _123
REMARK   52  A    between atoms: _126  and  _128
REMARK   53  A    between atoms: _128  and  _129
REMARK   54  A    between atoms: _128  and  _131
REMARK   55  A    between atoms: _131  and  _132
REMARK   56  A    between atoms: _132  and  _133
REMARK   57  A    between atoms: _135  and  _137
REMARK   58  A    between atoms: _137  and  _138
REMARK   59  A    between atoms: _137  and  _140
REMARK   60  A    between atoms: _140  and  _141
REMARK   61  A    between atoms: _141  and  _142
REMARK   62  A    between atoms: _142  and  _143
REMARK   63  A    between atoms: _143  and  _144
REMARK   64  A    between atoms: _148  and  _150
REMARK   65  A    between atoms: _150  and  _151
REMARK   66  A    between atoms: _150  and  _153
REMARK   67  A    between atoms: _153  and  _154
REMARK   68  A    between atoms: _157  and  _159
REMARK   69  A    between atoms: _159  and  _160
REMARK   70  A    between atoms: _159  and  _162
REMARK   71  A    between atoms: _162  and  _163
REMARK   72  A    between atoms: _166  and  _168
REMARK   73  A    between atoms: _168  and  _169
REMARK   74  A    between atoms: _168  and  _171
REMARK   75  A    between atoms: _171  and  _172
REMARK   76  A    between atoms: _175  and  _177
REMARK   77  A    between atoms: _177  and  _178
REMARK   78  A    between atoms: _177  and  _180
REMARK   79  A    between atoms: _180  and  _181
REMARK   80  A    between atoms: _181  and  _182
REMARK   81  A    between atoms: _182  and  _183
REMARK   82  A    between atoms: _183  and  _184
REMARK   83  A    between atoms: _188  and  _190
REMARK   84  A    between atoms: _190  and  _191
REMARK   85  A    between atoms: _190  and  _193
REMARK   86  A    between atoms: _196  and  _198
REMARK   87  A    between atoms: _198  and  _199
REMARK   88  A    between atoms: _198  and  _201
REMARK   89  A    between atoms: _201  and  _202
REMARK   90  A    between atoms: _205  and  _207
REMARK   91  A    between atoms: _207  and  _208
REMARK   92  A    between atoms: _207  and  _210
REMARK   93  A    between atoms: _210  and  _211
REMARK   94  A    between atoms: _211  and  _212
REMARK   95  A    between atoms: _212  and  _213
REMARK   96  A    between atoms: _213  and  _214
REMARK   97  A    between atoms: _218  and  _220
REMARK   98  A    between atoms: _220  and  _221
REMARK   99  A    between atoms: _220  and  _223
REMARK  100  A    between atoms: _223  and  _224
REMARK  101  A    between atoms: _224  and  _225
REMARK  102  A    between atoms: _230  and  _232
REMARK  103  A    between atoms: _232  and  _233
REMARK  104  A    between atoms: _232  and  _235
REMARK  105  A    between atoms: _235  and  _236
REMARK  106  A    between atoms: _239  and  _241
REMARK  107  A    between atoms: _241  and  _242
REMARK  108  A    between atoms: _241  and  _244
REMARK  109  A    between atoms: _244  and  _245
REMARK  110  A    between atoms: _250  and  _252
REMARK  111  A    between atoms: _252  and  _253
REMARK  112  A    between atoms: _252  and  _255
REMARK  113  A    between atoms: _255  and  _256
REMARK  114  A    between atoms: _259  and  _261
REMARK  115  A    between atoms: _261  and  _262
REMARK  116  A    between atoms: _261  and  _264
REMARK  117  A    between atoms: _264  and  _265
REMARK  118  A    between atoms: _268  and  _270
REMARK  119  A    between atoms: _270  and  _271
REMARK  120  A    between atoms: _270  and  _273
REMARK  121  A    between atoms: _273  and  _274
REMARK  122  A    between atoms: _274  and  _275
REMARK  123  A    between atoms: _278  and  _280
REMARK  124  A    between atoms: _280  and  _281
REMARK  125  A    between atoms: _280  and  _283
REMARK  126  A    between atoms: _283  and  _284
REMARK  127  A    between atoms: _284  and  _285
REMARK  128  A    between atoms: _285  and  _286
REMARK  129  A    between atoms: _286  and  _287
REMARK  130  A    between atoms: _291  and  _293
REMARK  131  A    between atoms: _293  and  _294
REMARK  132  A    between atoms: _293  and  _296
REMARK  133  A    between atoms: _296  and  _297
REMARK  134  A    between atoms: _300  and  _302
REMARK  135  A    between atoms: _302  and  _303
REMARK  136  A    between atoms: _302  and  _305
REMARK  137  A    between atoms: _308  and  _310
REMARK  138  A    between atoms: _310  and  _311
REMARK  139  A    between atoms: _310  and  _313
REMARK  140  A    between atoms: _313  and  _314
REMARK  141  A    between atoms: _314  and  _315
REMARK  142  A    between atoms: _315  and  _316
REMARK  143  A    between atoms: _316  and  _317
REMARK  144  A    between atoms: _321  and  _323
REMARK  145  A    between atoms: _323  and  _324
REMARK  146  A    between atoms: _323  and  _326
REMARK  147  A    between atoms: _326  and  _327
REMARK  148  A    between atoms: _330  and  _332
REMARK  149  A    between atoms: _332  and  _333
REMARK  150  A    between atoms: _332  and  _335
REMARK  151  A    between atoms: _335  and  _336
REMARK  152  A    between atoms: _336  and  _337
REMARK  153  A    between atoms: _339  and  _341
REMARK  154  A    between atoms: _341  and  _342
REMARK  155  A    between atoms: _341  and  _344
REMARK  156  A    between atoms: _344  and  _345
REMARK  157  A    between atoms: _345  and  _346
REMARK  158  A    between atoms: _348  and  _350
REMARK  159  A    between atoms: _350  and  _351
REMARK  160  A    between atoms: _350  and  _353
REMARK  161  A    between atoms: _353  and  _354
REMARK  162  A    between atoms: _354  and  _355
REMARK  163  A    between atoms: _358  and  _360
REMARK  164  A    between atoms: _360  and  _361
REMARK  165  A    between atoms: _360  and  _363
REMARK  166  A    between atoms: _363  and  _364
REMARK  167  A    between atoms: _369  and  _370
REMARK  168  A    between atoms: _372  and  _374
REMARK  169  A    between atoms: _374  and  _375
REMARK  170  A    between atoms: _374  and  _377
REMARK  171  A    between atoms: _381  and  _382
REMARK  172  A    between atoms: _387  and  _389
REMARK  173  A    between atoms: _389  and  _390
REMARK  174  A    between atoms: _392  and  _394
REMARK  175  A    between atoms: _394  and  _395
REMARK  176  A    between atoms: _397  and  _399
REMARK  177  A    between atoms: _399  and  _400
REMARK  178  A    between atoms: _399  and  _402
REMARK  179  A    between atoms: _402  and  _403
REMARK  180  A    between atoms: _403  and  _404
REMARK  181  A    between atoms: _407  and  _409
REMARK  182  A    between atoms: _409  and  _410
REMARK  183  A    between atoms: _409  and  _412
REMARK  184  A    between atoms: _412  and  _413
REMARK  185  A    between atoms: _413  and  _414
REMARK  186  A    between atoms: _416  and  _418
REMARK  187  A    between atoms: _418  and  _419
REMARK  188  A    between atoms: _418  and  _421
REMARK  189  A    between atoms: _421  and  _422
REMARK  190  A    between atoms: _428  and  _430
REMARK  191  A    between atoms: _430  and  _431
REMARK  192  A    between atoms: _430  and  _433
REMARK  193  A    between atoms: _433  and  _434
REMARK  194  A    between atoms: _439  and  _440
REMARK  195  A    between atoms: _442  and  _444
REMARK  196  A    between atoms: _444  and  _445
REMARK  197  A    between atoms: _444  and  _447
REMARK  198  A    between atoms: _447  and  _448
REMARK  199  A    between atoms: _451  and  _453
REMARK  200  A    between atoms: _453  and  _454
REMARK  201  A    between atoms: _453  and  _456
REMARK  202  A    between atoms: _456  and  _457
REMARK  203  A    between atoms: _457  and  _458
REMARK  204  A    between atoms: _458  and  _459
REMARK  205  A    between atoms: _459  and  _460
REMARK  206  A    between atoms: _465  and  _466
REMARK  207  A    between atoms: _471  and  _473
REMARK  208  A    between atoms: _473  and  _474
REMARK  209  A    between atoms: _473  and  _476
REMARK  210  A    between atoms: _476  and  _477
REMARK  211  A    between atoms: _477  and  _478
REMARK  212  A    between atoms: _481  and  _483
REMARK  213  A    between atoms: _483  and  _484
REMARK  214  A    between atoms: _483  and  _486
REMARK  215  A    between atoms: _486  and  _487
REMARK  216  A    between atoms: _492  and  _494
REMARK  217  A    between atoms: _494  and  _495
REMARK  218  A    between atoms: _494  and  _497
REMARK  219  A    between atoms: _497  and  _498
REMARK  220  A    between atoms: _501  and  _503
REMARK  221  A    between atoms: _503  and  _504
REMARK  222  A    between atoms: _503  and  _506
REMARK  223  A    between atoms: _506  and  _507
REMARK  224  A    between atoms: _510  and  _512
REMARK  225  A    between atoms: _512  and  _513
REMARK  226  A    between atoms: _512  and  _515
REMARK  227  A    between atoms: _515  and  _516
REMARK  228  A    between atoms: _519  and  _521
REMARK  229  A    between atoms: _521  and  _522
REMARK  230  A    between atoms: _521  and  _524
REMARK  231  A    between atoms: _524  and  _525
REMARK  232  A    between atoms: _525  and  _526
REMARK  233  A    between atoms: _531  and  _533
REMARK  234  A    between atoms: _533  and  _534
REMARK  235  A    between atoms: _533  and  _536
REMARK  236  A    between atoms: _539  and  _541
REMARK  237  A    between atoms: _541  and  _542
REMARK  238  A    between atoms: _541  and  _544
REMARK  239  A    between atoms: _544  and  _545
REMARK  240  A    between atoms: _548  and  _550
REMARK  241  A    between atoms: _550  and  _551
REMARK  242  A    between atoms: _550  and  _553
REMARK  243  A    between atoms: _553  and  _554
REMARK  244  A    between atoms: _557  and  _559
REMARK  245  A    between atoms: _559  and  _560
REMARK  246  A    between atoms: _559  and  _562
REMARK  247  A    between atoms: _562  and  _563
REMARK  248  A    between atoms: _569  and  _571
REMARK  249  A    between atoms: _571  and  _572
REMARK  250  A    between atoms: _574  and  _576
REMARK  251  A    between atoms: _576  and  _577
REMARK  252  A    between atoms: _576  and  _579
REMARK  253  A    between atoms: _579  and  _580
REMARK  254  A    between atoms: _586  and  _588
REMARK  255  A    between atoms: _588  and  _589
REMARK  256  A    between atoms: _592  and  _594
REMARK  257  A    between atoms: _594  and  _595
REMARK  258  A    between atoms: _594  and  _597
REMARK  259  A    between atoms: _599  and  _601
REMARK  260  A    between atoms: _601  and  _602
REMARK  261  A    between atoms: _604  and  _606
REMARK  262  A    between atoms: _606  and  _607
REMARK  263  A    between atoms: _606  and  _609
REMARK  264  A    between atoms: _609  and  _610
REMARK  265  A    between atoms: _616  and  _618
REMARK  266  A    between atoms: _618  and  _619
REMARK  267  A    between atoms: _618  and  _621
REMARK  268  A    between atoms: _621  and  _622
REMARK  269  A    between atoms: _627  and  _628
REMARK                            x       y       z     vdW  Elec       q    Type
REMARK                         _______ _______ _______ _____ _____    ______ ____
ROOT
ATOM      1  O   HOH     1       9.963  14.894  29.867  0.00  0.00    +0.000 OA
ENDROOT
TORSDOF 0
REMARK  Name = ../refined-set-2016/1xh4/1xh4_pocket.pdb
REMARK  269 active torsions:
REMARK  status: ('A' for Active; 'I' for Inactive)
REMARK    1  A    between atoms: _1  and  _3
REMARK    2  A    between atoms: _3  and  _4
REMARK    3  A    between atoms: _3  and  _6
REMARK    4  A    between atoms: _6  and  _7
REMARK    5  A    between atoms: _10  and  _12
REMARK    6  A    between atoms: _12  and  _13
REMARK    7  A    between atoms: _12  and  _15
REMARK    8  A    between atoms: _15  and  _16
REMARK    9  A    between atoms: _19  and  _21
REMARK   10  A    between atoms: _21  and  _22
REMARK   11  A    between atoms: _24  and  _26
REMARK   12  A    between atoms: _26  and  _27
REMARK   13  A    between atoms: _26  and  _29
REMARK   14  A    between atoms: _29  and  _30
REMARK   15  A    between atoms: _33  and  _35
REMARK   16  A    between atoms: _35  and  _36
REMARK   17  A    between atoms: _38  and  _40
REMARK   18  A    between atoms: _40  and  _41
REMARK   19  A    between atoms: _40  and  _43
REMARK   20  A    between atoms: _43  and  _44
REMARK   21  A    between atoms: _46  and  _48
REMARK   22  A    between atoms: _48  and  _49
REMARK   23  A    between atoms: _48  and  _51
REMARK   24  A    between atoms: _51  and  _52
REMARK   25  A    between atoms: _58  and  _60
REMARK   26  A    between atoms: _60  and  _61
REMARK   27  A    between atoms: _63  and  _65
REMARK   28  A    between atoms: _65  and  _66
REMARK   29  A    between atoms: _65  and  _68
REMARK   30  A    between atoms: _68  and  _69
REMARK   31  A    between atoms: _69  and  _70
REMARK   32  A    between atoms: _70  and  _71
REMARK   33  A    between atoms: _80  and  _82
REMARK   34  A    between atoms: _82  and  _83
REMARK   35  A    between atoms: _82  and  _85
REMARK   36  A    between atoms: _88  and  _90
REMARK   37  A    between atoms: _90  and  _91
REMARK   38  A    between atoms: _90  and  _93
REMARK   39  A    between atoms: _93  and  _94
REMARK   40  A    between atoms: _94  and  _95
REMARK   41  A    between atoms: _97  and  _99
REMARK   42  A    between atoms: _99  and  _100
REMARK   43  A    between atoms: _99  and  _102
REMARK   44  A    between atoms: _102  and  _103
REMARK   45  A    between atoms: _106  and  _108
REMARK   46  A    between atoms: _108  and  _109
REMARK   47  A    between atoms: _108  and  _111
REMARK   48  A    between atoms: _111  and  _112
REMARK   49  A    between atoms: _117  and  _118
REMARK   50  A    between atoms: _120  and  _122
REMARK   51  A    between atoms: _122  and  _123
REMARK   52  A    between atoms: _126  and  _128
REMARK   53  A    between atoms: _128  and  _129
REMARK   54  A    between atoms: _128  and  _131
REMARK   55  A    between atoms: _131  and  _132
REMARK   56  A    between atoms: _132  and  _133
REMARK   57  A    between atoms: _135  and  _137
REMARK   58  A    between atoms: _137  and  _138
REMARK   59  A    between atoms: _137  and  _140
REMARK   60  A    between atoms: _140  and  _141
REMARK   61  A    between atoms: _141  and  _142
REMARK   62  A    between atoms: _142  and  _143
REMARK   63  A    between atoms: _143  and  _144
REMARK   64  A    between atoms: _148  and  _150
REMARK   65  A    between atoms: _150  and  _151
REMARK   66  A    between atoms: _150  and  _153
REMARK   67  A    between atoms: _153  and  _154
REMARK   68  A    between atoms: _157  and  _159
REMARK   69  A    between atoms: _159  and  _160
REMARK   70  A    between atoms: _159  and  _162
REMARK   71  A    between atoms: _162  and  _163
REMARK   72  A    between atoms: _166  and  _168
REMARK   73  A    between atoms: _168  and  _169
REMARK   74  A    between atoms: _168  and  _171
REMARK   75  A    between atoms: _171  and  _172
REMARK   76  A    between atoms: _175  and  _177
REMARK   77  A    between atoms: _177  and  _178
REMARK   78  A    between atoms: _177  and  _180
REMARK   79  A    between atoms: _180  and  _181
REMARK   80  A    between atoms: _181  and  _182
REMARK   81  A    between atoms: _182  and  _183
REMARK   82  A    between atoms: _183  and  _184
REMARK   83  A    between atoms: _188  and  _190
REMARK   84  A    between atoms: _190  and  _191
REMARK   85  A    between atoms: _190  and  _193
REMARK   86  A    between atoms: _196  and  _198
REMARK   87  A    between atoms: _198  and  _199
REMARK   88  A    between atoms: _198  and  _201
REMARK   89  A    between atoms: _201  and  _202
REMARK   90  A    between atoms: _205  and  _207
REMARK   91  A    between atoms: _207  and  _208
REMARK   92  A    between atoms: _207  and  _210
REMARK   93  A    between atoms: _210  and  _211
REMARK   94  A    between atoms: _211  and  _212
REMARK   95  A    between atoms: _212  and  _213
REMARK   96  A    between atoms: _213  and  _214
REMARK   97  A    between atoms: _218  and  _220
REMARK   98  A    between atoms: _220  and  _221
REMARK   99  A    between atoms: _220  and  _223
REMARK  100  A    between atoms: _223  and  _224
REMARK  101  A    between atoms: _224  and  _225
REMARK  102  A    between atoms: _230  and  _232
REMARK  103  A    between atoms: _232  and  _233
REMARK  104  A    between atoms: _232  and  _235
REMARK  105  A    between atoms: _235  and  _236
REMARK  106  A    between atoms: _239  and  _241
REMARK  107  A    between atoms: _241  and  _242
REMARK  108  A    between atoms: _241  and  _244
REMARK  109  A    between atoms: _244  and  _245
REMARK  110  A    between atoms: _250  and  _252
REMARK  111  A    between atoms: _252  and  _253
REMARK  112  A    between atoms: _252  and  _255
REMARK  113  A    between atoms: _255  and  _256
REMARK  114  A    between atoms: _259  and  _261
REMARK  115  A    between atoms: _261  and  _262
REMARK  116  A    between atoms: _261  and  _264
REMARK  117  A    between atoms: _264  and  _265
REMARK  118  A    between atoms: _268  and  _270
REMARK  119  A    between atoms: _270  and  _271
REMARK  120  A    between atoms: _270  and  _273
REMARK  121  A    between atoms: _273  and  _274
REMARK  122  A    between atoms: _274  and  _275
REMARK  123  A    between atoms: _278  and  _280
REMARK  124  A    between atoms: _280  and  _281
REMARK  125  A    between atoms: _280  and  _283
REMARK  126  A    between atoms: _283  and  _284
REMARK  127  A    between atoms: _284  and  _285
REMARK  128  A    between atoms: _285  and  _286
REMARK  129  A    between atoms: _286  and  _287
REMARK  130  A    between atoms: _291  and  _293
REMARK  131  A    between atoms: _293  and  _294
REMARK  132  A    between atoms: _293  and  _296
REMARK  133  A    between atoms: _296  and  _297
REMARK  134  A    between atoms: _300  and  _302
REMARK  135  A    between atoms: _302  and  _303
REMARK  136  A    between atoms: _302  and  _305
REMARK  137  A    between atoms: _308  and  _310
REMARK  138  A    between atoms: _310  and  _311
REMARK  139  A    between atoms: _310  and  _313
REMARK  140  A    between atoms: _313  and  _314
REMARK  141  A    between atoms: _314  and  _315
REMARK  142  A    between atoms: _315  and  _316
REMARK  143  A    between atoms: _316  and  _317
REMARK  144  A    between atoms: _321  and  _323
REMARK  145  A    between atoms: _323  and  _324
REMARK  146  A    between atoms: _323  and  _326
REMARK  147  A    between atoms: _326  and  _327
REMARK  148  A    between atoms: _330  and  _332
REMARK  149  A    between atoms: _332  and  _333
REMARK  150  A    between atoms: _332  and  _335
REMARK  151  A    between atoms: _335  and  _336
REMARK  152  A    between atoms: _336  and  _337
REMARK  153  A    between atoms: _339  and  _341
REMARK  154  A    between atoms: _341  and  _342
REMARK  155  A    between atoms: _341  and  _344
REMARK  156  A    between atoms: _344  and  _345
REMARK  157  A    between atoms: _345  and  _346
REMARK  158  A    between atoms: _348  and  _350
REMARK  159  A    between atoms: _350  and  _351
REMARK  160  A    between atoms: _350  and  _353
REMARK  161  A    between atoms: _353  and  _354
REMARK  162  A    between atoms: _354  and  _355
REMARK  163  A    between atoms: _358  and  _360
REMARK  164  A    between atoms: _360  and  _361
REMARK  165  A    between atoms: _360  and  _363
REMARK  166  A    between atoms: _363  and  _364
REMARK  167  A    between atoms: _369  and  _370
REMARK  168  A    between atoms: _372  and  _374
REMARK  169  A    between atoms: _374  and  _375
REMARK  170  A    between atoms: _374  and  _377
REMARK  171  A    between atoms: _381  and  _382
REMARK  172  A    between atoms: _387  and  _389
REMARK  173  A    between atoms: _389  and  _390
REMARK  174  A    between atoms: _392  and  _394
REMARK  175  A    between atoms: _394  and  _395
REMARK  176  A    between atoms: _397  and  _399
REMARK  177  A    between atoms: _399  and  _400
REMARK  178  A    between atoms: _399  and  _402
REMARK  179  A    between atoms: _402  and  _403
REMARK  180  A    between atoms: _403  and  _404
REMARK  181  A    between atoms: _407  and  _409
REMARK  182  A    between atoms: _409  and  _410
REMARK  183  A    between atoms: _409  and  _412
REMARK  184  A    between atoms: _412  and  _413
REMARK  185  A    between atoms: _413  and  _414
REMARK  186  A    between atoms: _416  and  _418
REMARK  187  A    between atoms: _418  and  _419
REMARK  188  A    between atoms: _418  and  _421
REMARK  189  A    between atoms: _421  and  _422
REMARK  190  A    between atoms: _428  and  _430
REMARK  191  A    between atoms: _430  and  _431
REMARK  192  A    between atoms: _430  and  _433
REMARK  193  A    between atoms: _433  and  _434
REMARK  194  A    between atoms: _439  and  _440
REMARK  195  A    between atoms: _442  and  _444
REMARK  196  A    between atoms: _444  and  _445
REMARK  197  A    between atoms: _444  and  _447
REMARK  198  A    between atoms: _447  and  _448
REMARK  199  A    between atoms: _451  and  _453
REMARK  200  A    between atoms: _453  and  _454
REMARK  201  A    between atoms: _453  and  _456
REMARK  202  A    between atoms: _456  and  _457
REMARK  203  A    between atoms: _457  and  _458
REMARK  204  A    between atoms: _458  and  _459
REMARK  205  A    between atoms: _459  and  _460
REMARK  206  A    between atoms: _465  and  _466
REMARK  207  A    between atoms: _471  and  _473
REMARK  208  A    between atoms: _473  and  _474
REMARK  209  A    between atoms: _473  and  _476
REMARK  210  A    between atoms: _476  and  _477
REMARK  211  A    between atoms: _477  and  _478
REMARK  212  A    between atoms: _481  and  _483
REMARK  213  A    between atoms: _483  and  _484
REMARK  214  A    between atoms: _483  and  _486
REMARK  215  A    between atoms: _486  and  _487
REMARK  216  A    between atoms: _492  and  _494
REMARK  217  A    between atoms: _494  and  _495
REMARK  218  A    between atoms: _494  and  _497
REMARK  219  A    between atoms: _497  and  _498
REMARK  220  A    between atoms: _501  and  _503
REMARK  221  A    between atoms: _503  and  _504
REMARK  222  A    between atoms: _503  and  _506
REMARK  223  A    between atoms: _506  and  _507
REMARK  224  A    between atoms: _510  and  _512
REMARK  225  A    between atoms: _512  and  _513
REMARK  226  A    between atoms: _512  and  _515
REMARK  227  A    between atoms: _515  and  _516
REMARK  228  A    between atoms: _519  and  _521
REMARK  229  A    between atoms: _521  and  _522
REMARK  230  A    between atoms: _521  and  _524
REMARK  231  A    between atoms: _524  and  _525
REMARK  232  A    between atoms: _525  and  _526
REMARK  233  A    between atoms: _531  and  _533
REMARK  234  A    between atoms: _533  and  _534
REMARK  235  A    between atoms: _533  and  _536
REMARK  236  A    between atoms: _539  and  _541
REMARK  237  A    between atoms: _541  and  _542
REMARK  238  A    between atoms: _541  and  _544
REMARK  239  A    between atoms: _544  and  _545
REMARK  240  A    between atoms: _548  and  _550
REMARK  241  A    between atoms: _550  and  _551
REMARK  242  A    between atoms: _550  and  _553
REMARK  243  A    between atoms: _553  and  _554
REMARK  244  A    between atoms: _557  and  _559
REMARK  245  A    between atoms: _559  and  _560
REMARK  246  A    between atoms: _559  and  _562
REMARK  247  A    between atoms: _562  and  _563
REMARK  248  A    between atoms: _569  and  _571
REMARK  249  A    between atoms: _571  and  _572
REMARK  250  A    between atoms: _574  and  _576
REMARK  251  A    between atoms: _576  and  _577
REMARK  252  A    between atoms: _576  and  _579
REMARK  253  A    between atoms: _579  and  _580
REMARK  254  A    between atoms: _586  and  _588
REMARK  255  A    between atoms: _588  and  _589
REMARK  256  A    between atoms: _592  and  _594
REMARK  257  A    between atoms: _594  and  _595
REMARK  258  A    between atoms: _594  and  _597
REMARK  259  A    between atoms: _599  and  _601
REMARK  260  A    between atoms: _601  and  _602
REMARK  261  A    between atoms: _604  and  _606
REMARK  262  A    between atoms: _606  and  _607
REMARK  263  A    between atoms: _606  and  _609
REMARK  264  A    between atoms: _609  and  _610
REMARK  265  A    between atoms: _616  and  _618
REMARK  266  A    between atoms: _618  and  _619
REMARK  267  A    between atoms: _618  and  _621
REMARK  268  A    between atoms: _621  and  _622
REMARK  269  A    between atoms: _627  and  _628
REMARK                            x       y       z     vdW  Elec       q    Type
REMARK                         _______ _______ _______ _____ _____    ______ ____
ROOT
ATOM      1  O   HOH     1      21.591  23.090  33.598  0.00  0.00    +0.000 OA
ENDROOT
TORSDOF 0
REMARK  Name = ../refined-set-2016/1xh4/1xh4_pocket.pdb
REMARK  269 active torsions:
REMARK  status: ('A' for Active; 'I' for Inactive)
REMARK    1  A    between atoms: _1  and  _3
REMARK    2  A    between atoms: _3  and  _4
REMARK    3  A    between atoms: _3  and  _6
REMARK    4  A    between atoms: _6  and  _7
REMARK    5  A    between atoms: _10  and  _12
REMARK    6  A    between atoms: _12  and  _13
REMARK    7  A    between atoms: _12  and  _15
REMARK    8  A    between atoms: _15  and  _16
REMARK    9  A    between atoms: _19  and  _21
REMARK   10  A    between atoms: _21  and  _22
REMARK   11  A    between atoms: _24  and  _26
REMARK   12  A    between atoms: _26  and  _27
REMARK   13  A    between atoms: _26  and  _29
REMARK   14  A    between atoms: _29  and  _30
REMARK   15  A    between atoms: _33  and  _35
REMARK   16  A    between atoms: _35  and  _36
REMARK   17  A    between atoms: _38  and  _40
REMARK   18  A    between atoms: _40  and  _41
REMARK   19  A    between atoms: _40  and  _43
REMARK   20  A    between atoms: _43  and  _44
REMARK   21  A    between atoms: _46  and  _48
REMARK   22  A    between atoms: _48  and  _49
REMARK   23  A    between atoms: _48  and  _51
REMARK   24  A    between atoms: _51  and  _52
REMARK   25  A    between atoms: _58  and  _60
REMARK   26  A    between atoms: _60  and  _61
REMARK   27  A    between atoms: _63  and  _65
REMARK   28  A    between atoms: _65  and  _66
REMARK   29  A    between atoms: _65  and  _68
REMARK   30  A    between atoms: _68  and  _69
REMARK   31  A    between atoms: _69  and  _70
REMARK   32  A    between atoms: _70  and  _71
REMARK   33  A    between atoms: _80  and  _82
REMARK   34  A    between atoms: _82  and  _83
REMARK   35  A    between atoms: _82  and  _85
REMARK   36  A    between atoms: _88  and  _90
REMARK   37  A    between atoms: _90  and  _91
REMARK   38  A    between atoms: _90  and  _93
REMARK   39  A    between atoms: _93  and  _94
REMARK   40  A    between atoms: _94  and  _95
REMARK   41  A    between atoms: _97  and  _99
REMARK   42  A    between atoms: _99  and  _100
REMARK   43  A    between atoms: _99  and  _102
REMARK   44  A    between atoms: _102  and  _103
REMARK   45  A    between atoms: _106  and  _108
REMARK   46  A    between atoms: _108  and  _109
REMARK   47  A    between atoms: _108  and  _111
REMARK   48  A    between atoms: _111  and  _112
REMARK   49  A    between atoms: _117  and  _118
REMARK   50  A    between atoms: _120  and  _122
REMARK   51  A    between atoms: _122  and  _123
REMARK   52  A    between atoms: _126  and  _128
REMARK   53  A    between atoms: _128  and  _129
REMARK   54  A    between atoms: _128  and  _131
REMARK   55  A    between atoms: _131  and  _132
REMARK   56  A    between atoms: _132  and  _133
REMARK   57  A    between atoms: _135  and  _137
REMARK   58  A    between atoms: _137  and  _138
REMARK   59  A    between atoms: _137  and  _140
REMARK   60  A    between atoms: _140  and  _141
REMARK   61  A    between atoms: _141  and  _142
REMARK   62  A    between atoms: _142  and  _143
REMARK   63  A    between atoms: _143  and  _144
REMARK   64  A    between atoms: _148  and  _150
REMARK   65  A    between atoms: _150  and  _151
REMARK   66  A    between atoms: _150  and  _153
REMARK   67  A    between atoms: _153  and  _154
REMARK   68  A    between atoms: _157  and  _159
REMARK   69  A    between atoms: _159  and  _160
REMARK   70  A    between atoms: _159  and  _162
REMARK   71  A    between atoms: _162  and  _163
REMARK   72  A    between atoms: _166  and  _168
REMARK   73  A    between atoms: _168  and  _169
REMARK   74  A    between atoms: _168  and  _171
REMARK   75  A    between atoms: _171  and  _172
REMARK   76  A    between atoms: _175  and  _177
REMARK   77  A    between atoms: _177  and  _178
REMARK   78  A    between atoms: _177  and  _180
REMARK   79  A    between atoms: _180  and  _181
REMARK   80  A    between atoms: _181  and  _182
REMARK   81  A    between atoms: _182  and  _183
REMARK   82  A    between atoms: _183  and  _184
REMARK   83  A    between atoms: _188  and  _190
REMARK   84  A    between atoms: _190  and  _191
REMARK   85  A    between atoms: _190  and  _193
REMARK   86  A    between atoms: _196  and  _198
REMARK   87  A    between atoms: _198  and  _199
REMARK   88  A    between atoms: _198  and  _201
REMARK   89  A    between atoms: _201  and  _202
REMARK   90  A    between atoms: _205  and  _207
REMARK   91  A    between atoms: _207  and  _208
REMARK   92  A    between atoms: _207  and  _210
REMARK   93  A    between atoms: _210  and  _211
REMARK   94  A    between atoms: _211  and  _212
REMARK   95  A    between atoms: _212  and  _213
REMARK   96  A    between atoms: _213  and  _214
REMARK   97  A    between atoms: _218  and  _220
REMARK   98  A    between atoms: _220  and  _221
REMARK   99  A    between atoms: _220  and  _223
REMARK  100  A    between atoms: _223  and  _224
REMARK  101  A    between atoms: _224  and  _225
REMARK  102  A    between atoms: _230  and  _232
REMARK  103  A    between atoms: _232  and  _233
REMARK  104  A    between atoms: _232  and  _235
REMARK  105  A    between atoms: _235  and  _236
REMARK  106  A    between atoms: _239  and  _241
REMARK  107  A    between atoms: _241  and  _242
REMARK  108  A    between atoms: _241  and  _244
REMARK  109  A    between atoms: _244  and  _245
REMARK  110  A    between atoms: _250  and  _252
REMARK  111  A    between atoms: _252  and  _253
REMARK  112  A    between atoms: _252  and  _255
REMARK  113  A    between atoms: _255  and  _256
REMARK  114  A    between atoms: _259  and  _261
REMARK  115  A    between atoms: _261  and  _262
REMARK  116  A    between atoms: _261  and  _264
REMARK  117  A    between atoms: _264  and  _265
REMARK  118  A    between atoms: _268  and  _270
REMARK  119  A    between atoms: _270  and  _271
REMARK  120  A    between atoms: _270  and  _273
REMARK  121  A    between atoms: _273  and  _274
REMARK  122  A    between atoms: _274  and  _275
REMARK  123  A    between atoms: _278  and  _280
REMARK  124  A    between atoms: _280  and  _281
REMARK  125  A    between atoms: _280  and  _283
REMARK  126  A    between atoms: _283  and  _284
REMARK  127  A    between atoms: _284  and  _285
REMARK  128  A    between atoms: _285  and  _286
REMARK  129  A    between atoms: _286  and  _287
REMARK  130  A    between atoms: _291  and  _293
REMARK  131  A    between atoms: _293  and  _294
REMARK  132  A    between atoms: _293  and  _296
REMARK  133  A    between atoms: _296  and  _297
REMARK  134  A    between atoms: _300  and  _302
REMARK  135  A    between atoms: _302  and  _303
REMARK  136  A    between atoms: _302  and  _305
REMARK  137  A    between atoms: _308  and  _310
REMARK  138  A    between atoms: _310  and  _311
REMARK  139  A    between atoms: _310  and  _313
REMARK  140  A    between atoms: _313  and  _314
REMARK  141  A    between atoms: _314  and  _315
REMARK  142  A    between atoms: _315  and  _316
REMARK  143  A    between atoms: _316  and  _317
REMARK  144  A    between atoms: _321  and  _323
REMARK  145  A    between atoms: _323  and  _324
REMARK  146  A    between atoms: _323  and  _326
REMARK  147  A    between atoms: _326  and  _327
REMARK  148  A    between atoms: _330  and  _332
REMARK  149  A    between atoms: _332  and  _333
REMARK  150  A    between atoms: _332  and  _335
REMARK  151  A    between atoms: _335  and  _336
REMARK  152  A    between atoms: _336  and  _337
REMARK  153  A    between atoms: _339  and  _341
REMARK  154  A    between atoms: _341  and  _342
REMARK  155  A    between atoms: _341  and  _344
REMARK  156  A    between atoms: _344  and  _345
REMARK  157  A    between atoms: _345  and  _346
REMARK  158  A    between atoms: _348  and  _350
REMARK  159  A    between atoms: _350  and  _351
REMARK  160  A    between atoms: _350  and  _353
REMARK  161  A    between atoms: _353  and  _354
REMARK  162  A    between atoms: _354  and  _355
REMARK  163  A    between atoms: _358  and  _360
REMARK  164  A    between atoms: _360  and  _361
REMARK  165  A    between atoms: _360  and  _363
REMARK  166  A    between atoms: _363  and  _364
REMARK  167  A    between atoms: _369  and  _370
REMARK  168  A    between atoms: _372  and  _374
REMARK  169  A    between atoms: _374  and  _375
REMARK  170  A    between atoms: _374  and  _377
REMARK  171  A    between atoms: _381  and  _382
REMARK  172  A    between atoms: _387  and  _389
REMARK  173  A    between atoms: _389  and  _390
REMARK  174  A    between atoms: _392  and  _394
REMARK  175  A    between atoms: _394  and  _395
REMARK  176  A    between atoms: _397  and  _399
REMARK  177  A    between atoms: _399  and  _400
REMARK  178  A    between atoms: _399  and  _402
REMARK  179  A    between atoms: _402  and  _403
REMARK  180  A    between atoms: _403  and  _404
REMARK  181  A    between atoms: _407  and  _409
REMARK  182  A    between atoms: _409  and  _410
REMARK  183  A    between atoms: _409  and  _412
REMARK  184  A    between atoms: _412  and  _413
REMARK  185  A    between atoms: _413  and  _414
REMARK  186  A    between atoms: _416  and  _418
REMARK  187  A    between atoms: _418  and  _419
REMARK  188  A    between atoms: _418  and  _421
REMARK  189  A    between atoms: _421  and  _422
REMARK  190  A    between atoms: _428  and  _430
REMARK  191  A    between atoms: _430  and  _431
REMARK  192  A    between atoms: _430  and  _433
REMARK  193  A    between atoms: _433  and  _434
REMARK  194  A    between atoms: _439  and  _440
REMARK  195  A    between atoms: _442  and  _444
REMARK  196  A    between atoms: _444  and  _445
REMARK  197  A    between atoms: _444  and  _447
REMARK  198  A    between atoms: _447  and  _448
REMARK  199  A    between atoms: _451  and  _453
REMARK  200  A    between atoms: _453  and  _454
REMARK  201  A    between atoms: _453  and  _456
REMARK  202  A    between atoms: _456  and  _457
REMARK  203  A    between atoms: _457  and  _458
REMARK  204  A    between atoms: _458  and  _459
REMARK  205  A    between atoms: _459  and  _460
REMARK  206  A    between atoms: _465  and  _466
REMARK  207  A    between atoms: _471  and  _473
REMARK  208  A    between atoms: _473  and  _474
REMARK  209  A    between atoms: _473  and  _476
REMARK  210  A    between atoms: _476  and  _477
REMARK  211  A    between atoms: _477  and  _478
REMARK  212  A    between atoms: _481  and  _483
REMARK  213  A    between atoms: _483  and  _484
REMARK  214  A    between atoms: _483  and  _486
REMARK  215  A    between atoms: _486  and  _487
REMARK  216  A    between atoms: _492  and  _494
REMARK  217  A    between atoms: _494  and  _495
REMARK  218  A    between atoms: _494  and  _497
REMARK  219  A    between atoms: _497  and  _498
REMARK  220  A    between atoms: _501  and  _503
REMARK  221  A    between atoms: _503  and  _504
REMARK  222  A    between atoms: _503  and  _506
REMARK  223  A    between atoms: _506  and  _507
REMARK  224  A    between atoms: _510  and  _512
REMARK  225  A    between atoms: _512  and  _513
REMARK  226  A    between atoms: _512  and  _515
REMARK  227  A    between atoms: _515  and  _516
REMARK  228  A    between atoms: _519  and  _521
REMARK  229  A    between atoms: _521  and  _522
REMARK  230  A    between atoms: _521  and  _524
REMARK  231  A    between atoms: _524  and  _525
REMARK  232  A    between atoms: _525  and  _526
REMARK  233  A    between atoms: _531  and  _533
REMARK  234  A    between atoms: _533  and  _534
REMARK  235  A    between atoms: _533  and  _536
REMARK  236  A    between atoms: _539  and  _541
REMARK  237  A    between atoms: _541  and  _542
REMARK  238  A    between atoms: _541  and  _544
REMARK  239  A    between atoms: _544  and  _545
REMARK  240  A    between atoms: _548  and  _550
REMARK  241  A    between atoms: _550  and  _551
REMARK  242  A    between atoms: _550  and  _553
REMARK  243  A    between atoms: _553  and  _554
REMARK  244  A    between atoms: _557  and  _559
REMARK  245  A    between atoms: _559  and  _560
REMARK  246  A    between atoms: _559  and  _562
REMARK  247  A    between atoms: _562  and  _563
REMARK  248  A    between atoms: _569  and  _571
REMARK  249  A    between atoms: _571  and  _572
REMARK  250  A    between atoms: _574  and  _576
REMARK  251  A    between atoms: _576  and  _577
REMARK  252  A    between atoms: _576  and  _579
REMARK  253  A    between atoms: _579  and  _580
REMARK  254  A    between atoms: _586  and  _588
REMARK  255  A    between atoms: _588  and  _589
REMARK  256  A    between atoms: _592  and  _594
REMARK  257  A    between atoms: _594  and  _595
REMARK  258  A    between atoms: _594  and  _597
REMARK  259  A    between atoms: _599  and  _601
REMARK  260  A    between atoms: _601  and  _602
REMARK  261  A    between atoms: _604  and  _606
REMARK  262  A    between atoms: _606  and  _607
REMARK  263  A    between atoms: _606  and  _609
REMARK  264  A    between atoms: _609  and  _610
REMARK  265  A    between atoms: _616  and  _618
REMARK  266  A    between atoms: _618  and  _619
REMARK  267  A    between atoms: _618  and  _621
REMARK  268  A    between atoms: _621  and  _622
REMARK  269  A    between atoms: _627  and  _628
REMARK                            x       y       z     vdW  Elec       q    Type
REMARK                         _______ _______ _______ _____ _____    ______ ____
ROOT
ATOM      1  O   HOH     1      10.043  18.656  30.832  0.00  0.00    +0.000 OA
ENDROOT
TORSDOF 0
REMARK  Name = ../refined-set-2016/1xh4/1xh4_pocket.pdb
REMARK  269 active torsions:
REMARK  status: ('A' for Active; 'I' for Inactive)
REMARK    1  A    between atoms: _1  and  _3
REMARK    2  A    between atoms: _3  and  _4
REMARK    3  A    between atoms: _3  and  _6
REMARK    4  A    between atoms: _6  and  _7
REMARK    5  A    between atoms: _10  and  _12
REMARK    6  A    between atoms: _12  and  _13
REMARK    7  A    between atoms: _12  and  _15
REMARK    8  A    between atoms: _15  and  _16
REMARK    9  A    between atoms: _19  and  _21
REMARK   10  A    between atoms: _21  and  _22
REMARK   11  A    between atoms: _24  and  _26
REMARK   12  A    between atoms: _26  and  _27
REMARK   13  A    between atoms: _26  and  _29
REMARK   14  A    between atoms: _29  and  _30
REMARK   15  A    between atoms: _33  and  _35
REMARK   16  A    between atoms: _35  and  _36
REMARK   17  A    between atoms: _38  and  _40
REMARK   18  A    between atoms: _40  and  _41
REMARK   19  A    between atoms: _40  and  _43
REMARK   20  A    between atoms: _43  and  _44
REMARK   21  A    between atoms: _46  and  _48
REMARK   22  A    between atoms: _48  and  _49
REMARK   23  A    between atoms: _48  and  _51
REMARK   24  A    between atoms: _51  and  _52
REMARK   25  A    between atoms: _58  and  _60
REMARK   26  A    between atoms: _60  and  _61
REMARK   27  A    between atoms: _63  and  _65
REMARK   28  A    between atoms: _65  and  _66
REMARK   29  A    between atoms: _65  and  _68
REMARK   30  A    between atoms: _68  and  _69
REMARK   31  A    between atoms: _69  and  _70
REMARK   32  A    between atoms: _70  and  _71
REMARK   33  A    between atoms: _80  and  _82
REMARK   34  A    between atoms: _82  and  _83
REMARK   35  A    between atoms: _82  and  _85
REMARK   36  A    between atoms: _88  and  _90
REMARK   37  A    between atoms: _90  and  _91
REMARK   38  A    between atoms: _90  and  _93
REMARK   39  A    between atoms: _93  and  _94
REMARK   40  A    between atoms: _94  and  _95
REMARK   41  A    between atoms: _97  and  _99
REMARK   42  A    between atoms: _99  and  _100
REMARK   43  A    between atoms: _99  and  _102
REMARK   44  A    between atoms: _102  and  _103
REMARK   45  A    between atoms: _106  and  _108
REMARK   46  A    between atoms: _108  and  _109
REMARK   47  A    between atoms: _108  and  _111
REMARK   48  A    between atoms: _111  and  _112
REMARK   49  A    between atoms: _117  and  _118
REMARK   50  A    between atoms: _120  and  _122
REMARK   51  A    between atoms: _122  and  _123
REMARK   52  A    between atoms: _126  and  _128
REMARK   53  A    between atoms: _128  and  _129
REMARK   54  A    between atoms: _128  and  _131
REMARK   55  A    between atoms: _131  and  _132
REMARK   56  A    between atoms: _132  and  _133
REMARK   57  A    between atoms: _135  and  _137
REMARK   58  A    between atoms: _137  and  _138
REMARK   59  A    between atoms: _137  and  _140
REMARK   60  A    between atoms: _140  and  _141
REMARK   61  A    between atoms: _141  and  _142
REMARK   62  A    between atoms: _142  and  _143
REMARK   63  A    between atoms: _143  and  _144
REMARK   64  A    between atoms: _148  and  _150
REMARK   65  A    between atoms: _150  and  _151
REMARK   66  A    between atoms: _150  and  _153
REMARK   67  A    between atoms: _153  and  _154
REMARK   68  A    between atoms: _157  and  _159
REMARK   69  A    between atoms: _159  and  _160
REMARK   70  A    between atoms: _159  and  _162
REMARK   71  A    between atoms: _162  and  _163
REMARK   72  A    between atoms: _166  and  _168
REMARK   73  A    between atoms: _168  and  _169
REMARK   74  A    between atoms: _168  and  _171
REMARK   75  A    between atoms: _171  and  _172
REMARK   76  A    between atoms: _175  and  _177
REMARK   77  A    between atoms: _177  and  _178
REMARK   78  A    between atoms: _177  and  _180
REMARK   79  A    between atoms: _180  and  _181
REMARK   80  A    between atoms: _181  and  _182
REMARK   81  A    between atoms: _182  and  _183
REMARK   82  A    between atoms: _183  and  _184
REMARK   83  A    between atoms: _188  and  _190
REMARK   84  A    between atoms: _190  and  _191
REMARK   85  A    between atoms: _190  and  _193
REMARK   86  A    between atoms: _196  and  _198
REMARK   87  A    between atoms: _198  and  _199
REMARK   88  A    between atoms: _198  and  _201
REMARK   89  A    between atoms: _201  and  _202
REMARK   90  A    between atoms: _205  and  _207
REMARK   91  A    between atoms: _207  and  _208
REMARK   92  A    between atoms: _207  and  _210
REMARK   93  A    between atoms: _210  and  _211
REMARK   94  A    between atoms: _211  and  _212
REMARK   95  A    between atoms: _212  and  _213
REMARK   96  A    between atoms: _213  and  _214
REMARK   97  A    between atoms: _218  and  _220
REMARK   98  A    between atoms: _220  and  _221
REMARK   99  A    between atoms: _220  and  _223
REMARK  100  A    between atoms: _223  and  _224
REMARK  101  A    between atoms: _224  and  _225
REMARK  102  A    between atoms: _230  and  _232
REMARK  103  A    between atoms: _232  and  _233
REMARK  104  A    between atoms: _232  and  _235
REMARK  105  A    between atoms: _235  and  _236
REMARK  106  A    between atoms: _239  and  _241
REMARK  107  A    between atoms: _241  and  _242
REMARK  108  A    between atoms: _241  and  _244
REMARK  109  A    between atoms: _244  and  _245
REMARK  110  A    between atoms: _250  and  _252
REMARK  111  A    between atoms: _252  and  _253
REMARK  112  A    between atoms: _252  and  _255
REMARK  113  A    between atoms: _255  and  _256
REMARK  114  A    between atoms: _259  and  _261
REMARK  115  A    between atoms: _261  and  _262
REMARK  116  A    between atoms: _261  and  _264
REMARK  117  A    between atoms: _264  and  _265
REMARK  118  A    between atoms: _268  and  _270
REMARK  119  A    between atoms: _270  and  _271
REMARK  120  A    between atoms: _270  and  _273
REMARK  121  A    between atoms: _273  and  _274
REMARK  122  A    between atoms: _274  and  _275
REMARK  123  A    between atoms: _278  and  _280
REMARK  124  A    between atoms: _280  and  _281
REMARK  125  A    between atoms: _280  and  _283
REMARK  126  A    between atoms: _283  and  _284
REMARK  127  A    between atoms: _284  and  _285
REMARK  128  A    between atoms: _285  and  _286
REMARK  129  A    between atoms: _286  and  _287
REMARK  130  A    between atoms: _291  and  _293
REMARK  131  A    between atoms: _293  and  _294
REMARK  132  A    between atoms: _293  and  _296
REMARK  133  A    between atoms: _296  and  _297
REMARK  134  A    between atoms: _300  and  _302
REMARK  135  A    between atoms: _302  and  _303
REMARK  136  A    between atoms: _302  and  _305
REMARK  137  A    between atoms: _308  and  _310
REMARK  138  A    between atoms: _310  and  _311
REMARK  139  A    between atoms: _310  and  _313
REMARK  140  A    between atoms: _313  and  _314
REMARK  141  A    between atoms: _314  and  _315
REMARK  142  A    between atoms: _315  and  _316
REMARK  143  A    between atoms: _316  and  _317
REMARK  144  A    between atoms: _321  and  _323
REMARK  145  A    between atoms: _323  and  _324
REMARK  146  A    between atoms: _323  and  _326
REMARK  147  A    between atoms: _326  and  _327
REMARK  148  A    between atoms: _330  and  _332
REMARK  149  A    between atoms: _332  and  _333
REMARK  150  A    between atoms: _332  and  _335
REMARK  151  A    between atoms: _335  and  _336
REMARK  152  A    between atoms: _336  and  _337
REMARK  153  A    between atoms: _339  and  _341
REMARK  154  A    between atoms: _341  and  _342
REMARK  155  A    between atoms: _341  and  _344
REMARK  156  A    between atoms: _344  and  _345
REMARK  157  A    between atoms: _345  and  _346
REMARK  158  A    between atoms: _348  and  _350
REMARK  159  A    between atoms: _350  and  _351
REMARK  160  A    between atoms: _350  and  _353
REMARK  161  A    between atoms: _353  and  _354
REMARK  162  A    between atoms: _354  and  _355
REMARK  163  A    between atoms: _358  and  _360
REMARK  164  A    between atoms: _360  and  _361
REMARK  165  A    between atoms: _360  and  _363
REMARK  166  A    between atoms: _363  and  _364
REMARK  167  A    between atoms: _369  and  _370
REMARK  168  A    between atoms: _372  and  _374
REMARK  169  A    between atoms: _374  and  _375
REMARK  170  A    between atoms: _374  and  _377
REMARK  171  A    between atoms: _381  and  _382
REMARK  172  A    between atoms: _387  and  _389
REMARK  173  A    between atoms: _389  and  _390
REMARK  174  A    between atoms: _392  and  _394
REMARK  175  A    between atoms: _394  and  _395
REMARK  176  A    between atoms: _397  and  _399
REMARK  177  A    between atoms: _399  and  _400
REMARK  178  A    between atoms: _399  and  _402
REMARK  179  A    between atoms: _402  and  _403
REMARK  180  A    between atoms: _403  and  _404
REMARK  181  A    between atoms: _407  and  _409
REMARK  182  A    between atoms: _409  and  _410
REMARK  183  A    between atoms: _409  and  _412
REMARK  184  A    between atoms: _412  and  _413
REMARK  185  A    between atoms: _413  and  _414
REMARK  186  A    between atoms: _416  and  _418
REMARK  187  A    between atoms: _418  and  _419
REMARK  188  A    between atoms: _418  and  _421
REMARK  189  A    between atoms: _421  and  _422
REMARK  190  A    between atoms: _428  and  _430
REMARK  191  A    between atoms: _430  and  _431
REMARK  192  A    between atoms: _430  and  _433
REMARK  193  A    between atoms: _433  and  _434
REMARK  194  A    between atoms: _439  and  _440
REMARK  195  A    between atoms: _442  and  _444
REMARK  196  A    between atoms: _444  and  _445
REMARK  197  A    between atoms: _444  and  _447
REMARK  198  A    between atoms: _447  and  _448
REMARK  199  A    between atoms: _451  and  _453
REMARK  200  A    between atoms: _453  and  _454
REMARK  201  A    between atoms: _453  and  _456
REMARK  202  A    between atoms: _456  and  _457
REMARK  203  A    between atoms: _457  and  _458
REMARK  204  A    between atoms: _458  and  _459
REMARK  205  A    between atoms: _459  and  _460
REMARK  206  A    between atoms: _465  and  _466
REMARK  207  A    between atoms: _471  and  _473
REMARK  208  A    between atoms: _473  and  _474
REMARK  209  A    between atoms: _473  and  _476
REMARK  210  A    between atoms: _476  and  _477
REMARK  211  A    between atoms: _477  and  _478
REMARK  212  A    between atoms: _481  and  _483
REMARK  213  A    between atoms: _483  and  _484
REMARK  214  A    between atoms: _483  and  _486
REMARK  215  A    between atoms: _486  and  _487
REMARK  216  A    between atoms: _492  and  _494
REMARK  217  A    between atoms: _494  and  _495
REMARK  218  A    between atoms: _494  and  _497
REMARK  219  A    between atoms: _497  and  _498
REMARK  220  A    between atoms: _501  and  _503
REMARK  221  A    between atoms: _503  and  _504
REMARK  222  A    between atoms: _503  and  _506
REMARK  223  A    between atoms: _506  and  _507
REMARK  224  A    between atoms: _510  and  _512
REMARK  225  A    between atoms: _512  and  _513
REMARK  226  A    between atoms: _512  and  _515
REMARK  227  A    between atoms: _515  and  _516
REMARK  228  A    between atoms: _519  and  _521
REMARK  229  A    between atoms: _521  and  _522
REMARK  230  A    between atoms: _521  and  _524
REMARK  231  A    between atoms: _524  and  _525
REMARK  232  A    between atoms: _525  and  _526
REMARK  233  A    between atoms: _531  and  _533
REMARK  234  A    between atoms: _533  and  _534
REMARK  235  A    between atoms: _533  and  _536
REMARK  236  A    between atoms: _539  and  _541
REMARK  237  A    between atoms: _541  and  _542
REMARK  238  A    between atoms: _541  and  _544
REMARK  239  A    between atoms: _544  and  _545
REMARK  240  A    between atoms: _548  and  _550
REMARK  241  A    between atoms: _550  and  _551
REMARK  242  A    between atoms: _550  and  _553
REMARK  243  A    between atoms: _553  and  _554
REMARK  244  A    between atoms: _557  and  _559
REMARK  245  A    between atoms: _559  and  _560
REMARK  246  A    between atoms: _559  and  _562
REMARK  247  A    between atoms: _562  and  _563
REMARK  248  A    between atoms: _569  and  _571
REMARK  249  A    between atoms: _571  and  _572
REMARK  250  A    between atoms: _574  and  _576
REMARK  251  A    between atoms: _576  and  _577
REMARK  252  A    between atoms: _576  and  _579
REMARK  253  A    between atoms: _579  and  _580
REMARK  254  A    between atoms: _586  and  _588
REMARK  255  A    between atoms: _588  and  _589
REMARK  256  A    between atoms: _592  and  _594
REMARK  257  A    between atoms: _594  and  _595
REMARK  258  A    between atoms: _594  and  _597
REMARK  259  A    between atoms: _599  and  _601
REMARK  260  A    between atoms: _601  and  _602
REMARK  261  A    between atoms: _604  and  _606
REMARK  262  A    between atoms: _606  and  _607
REMARK  263  A    between atoms: _606  and  _609
REMARK  264  A    between atoms: _609  and  _610
REMARK  265  A    between atoms: _616  and  _618
REMARK  266  A    between atoms: _618  and  _619
REMARK  267  A    between atoms: _618  and  _621
REMARK  268  A    between atoms: _621  and  _622
REMARK  269  A    between atoms: _627  and  _628
REMARK                            x       y       z     vdW  Elec       q    Type
REMARK                         _______ _______ _______ _____ _____    ______ ____
ROOT
ATOM      1  O   HOH     1       1.624  19.326  25.624  0.00  0.00    +0.000 OA
ENDROOT
TORSDOF 0
REMARK  Name = ../refined-set-2016/1xh4/1xh4_pocket.pdb
REMARK  269 active torsions:
REMARK  status: ('A' for Active; 'I' for Inactive)
REMARK    1  A    between atoms: _1  and  _3
REMARK    2  A    between atoms: _3  and  _4
REMARK    3  A    between atoms: _3  and  _6
REMARK    4  A    between atoms: _6  and  _7
REMARK    5  A    between atoms: _10  and  _12
REMARK    6  A    between atoms: _12  and  _13
REMARK    7  A    between atoms: _12  and  _15
REMARK    8  A    between atoms: _15  and  _16
REMARK    9  A    between atoms: _19  and  _21
REMARK   10  A    between atoms: _21  and  _22
REMARK   11  A    between atoms: _24  and  _26
REMARK   12  A    between atoms: _26  and  _27
REMARK   13  A    between atoms: _26  and  _29
REMARK   14  A    between atoms: _29  and  _30
REMARK   15  A    between atoms: _33  and  _35
REMARK   16  A    between atoms: _35  and  _36
REMARK   17  A    between atoms: _38  and  _40
REMARK   18  A    between atoms: _40  and  _41
REMARK   19  A    between atoms: _40  and  _43
REMARK   20  A    between atoms: _43  and  _44
REMARK   21  A    between atoms: _46  and  _48
REMARK   22  A    between atoms: _48  and  _49
REMARK   23  A    between atoms: _48  and  _51
REMARK   24  A    between atoms: _51  and  _52
REMARK   25  A    between atoms: _58  and  _60
REMARK   26  A    between atoms: _60  and  _61
REMARK   27  A    between atoms: _63  and  _65
REMARK   28  A    between atoms: _65  and  _66
REMARK   29  A    between atoms: _65  and  _68
REMARK   30  A    between atoms: _68  and  _69
REMARK   31  A    between atoms: _69  and  _70
REMARK   32  A    between atoms: _70  and  _71
REMARK   33  A    between atoms: _80  and  _82
REMARK   34  A    between atoms: _82  and  _83
REMARK   35  A    between atoms: _82  and  _85
REMARK   36  A    between atoms: _88  and  _90
REMARK   37  A    between atoms: _90  and  _91
REMARK   38  A    between atoms: _90  and  _93
REMARK   39  A    between atoms: _93  and  _94
REMARK   40  A    between atoms: _94  and  _95
REMARK   41  A    between atoms: _97  and  _99
REMARK   42  A    between atoms: _99  and  _100
REMARK   43  A    between atoms: _99  and  _102
REMARK   44  A    between atoms: _102  and  _103
REMARK   45  A    between atoms: _106  and  _108
REMARK   46  A    between atoms: _108  and  _109
REMARK   47  A    between atoms: _108  and  _111
REMARK   48  A    between atoms: _111  and  _112
REMARK   49  A    between atoms: _117  and  _118
REMARK   50  A    between atoms: _120  and  _122
REMARK   51  A    between atoms: _122  and  _123
REMARK   52  A    between atoms: _126  and  _128
REMARK   53  A    between atoms: _128  and  _129
REMARK   54  A    between atoms: _128  and  _131
REMARK   55  A    between atoms: _131  and  _132
REMARK   56  A    between atoms: _132  and  _133
REMARK   57  A    between atoms: _135  and  _137
REMARK   58  A    between atoms: _137  and  _138
REMARK   59  A    between atoms: _137  and  _140
REMARK   60  A    between atoms: _140  and  _141
REMARK   61  A    between atoms: _141  and  _142
REMARK   62  A    between atoms: _142  and  _143
REMARK   63  A    between atoms: _143  and  _144
REMARK   64  A    between atoms: _148  and  _150
REMARK   65  A    between atoms: _150  and  _151
REMARK   66  A    between atoms: _150  and  _153
REMARK   67  A    between atoms: _153  and  _154
REMARK   68  A    between atoms: _157  and  _159
REMARK   69  A    between atoms: _159  and  _160
REMARK   70  A    between atoms: _159  and  _162
REMARK   71  A    between atoms: _162  and  _163
REMARK   72  A    between atoms: _166  and  _168
REMARK   73  A    between atoms: _168  and  _169
REMARK   74  A    between atoms: _168  and  _171
REMARK   75  A    between atoms: _171  and  _172
REMARK   76  A    between atoms: _175  and  _177
REMARK   77  A    between atoms: _177  and  _178
REMARK   78  A    between atoms: _177  and  _180
REMARK   79  A    between atoms: _180  and  _181
REMARK   80  A    between atoms: _181  and  _182
REMARK   81  A    between atoms: _182  and  _183
REMARK   82  A    between atoms: _183  and  _184
REMARK   83  A    between atoms: _188  and  _190
REMARK   84  A    between atoms: _190  and  _191
REMARK   85  A    between atoms: _190  and  _193
REMARK   86  A    between atoms: _196  and  _198
REMARK   87  A    between atoms: _198  and  _199
REMARK   88  A    between atoms: _198  and  _201
REMARK   89  A    between atoms: _201  and  _202
REMARK   90  A    between atoms: _205  and  _207
REMARK   91  A    between atoms: _207  and  _208
REMARK   92  A    between atoms: _207  and  _210
REMARK   93  A    between atoms: _210  and  _211
REMARK   94  A    between atoms: _211  and  _212
REMARK   95  A    between atoms: _212  and  _213
REMARK   96  A    between atoms: _213  and  _214
REMARK   97  A    between atoms: _218  and  _220
REMARK   98  A    between atoms: _220  and  _221
REMARK   99  A    between atoms: _220  and  _223
REMARK  100  A    between atoms: _223  and  _224
REMARK  101  A    between atoms: _224  and  _225
REMARK  102  A    between atoms: _230  and  _232
REMARK  103  A    between atoms: _232  and  _233
REMARK  104  A    between atoms: _232  and  _235
REMARK  105  A    between atoms: _235  and  _236
REMARK  106  A    between atoms: _239  and  _241
REMARK  107  A    between atoms: _241  and  _242
REMARK  108  A    between atoms: _241  and  _244
REMARK  109  A    between atoms: _244  and  _245
REMARK  110  A    between atoms: _250  and  _252
REMARK  111  A    between atoms: _252  and  _253
REMARK  112  A    between atoms: _252  and  _255
REMARK  113  A    between atoms: _255  and  _256
REMARK  114  A    between atoms: _259  and  _261
REMARK  115  A    between atoms: _261  and  _262
REMARK  116  A    between atoms: _261  and  _264
REMARK  117  A    between atoms: _264  and  _265
REMARK  118  A    between atoms: _268  and  _270
REMARK  119  A    between atoms: _270  and  _271
REMARK  120  A    between atoms: _270  and  _273
REMARK  121  A    between atoms: _273  and  _274
REMARK  122  A    between atoms: _274  and  _275
REMARK  123  A    between atoms: _278  and  _280
REMARK  124  A    between atoms: _280  and  _281
REMARK  125  A    between atoms: _280  and  _283
REMARK  126  A    between atoms: _283  and  _284
REMARK  127  A    between atoms: _284  and  _285
REMARK  128  A    between atoms: _285  and  _286
REMARK  129  A    between atoms: _286  and  _287
REMARK  130  A    between atoms: _291  and  _293
REMARK  131  A    between atoms: _293  and  _294
REMARK  132  A    between atoms: _293  and  _296
REMARK  133  A    between atoms: _296  and  _297
REMARK  134  A    between atoms: _300  and  _302
REMARK  135  A    between atoms: _302  and  _303
REMARK  136  A    between atoms: _302  and  _305
REMARK  137  A    between atoms: _308  and  _310
REMARK  138  A    between atoms: _310  and  _311
REMARK  139  A    between atoms: _310  and  _313
REMARK  140  A    between atoms: _313  and  _314
REMARK  141  A    between atoms: _314  and  _315
REMARK  142  A    between atoms: _315  and  _316
REMARK  143  A    between atoms: _316  and  _317
REMARK  144  A    between atoms: _321  and  _323
REMARK  145  A    between atoms: _323  and  _324
REMARK  146  A    between atoms: _323  and  _326
REMARK  147  A    between atoms: _326  and  _327
REMARK  148  A    between atoms: _330  and  _332
REMARK  149  A    between atoms: _332  and  _333
REMARK  150  A    between atoms: _332  and  _335
REMARK  151  A    between atoms: _335  and  _336
REMARK  152  A    between atoms: _336  and  _337
REMARK  153  A    between atoms: _339  and  _341
REMARK  154  A    between atoms: _341  and  _342
REMARK  155  A    between atoms: _341  and  _344
REMARK  156  A    between atoms: _344  and  _345
REMARK  157  A    between atoms: _345  and  _346
REMARK  158  A    between atoms: _348  and  _350
REMARK  159  A    between atoms: _350  and  _351
REMARK  160  A    between atoms: _350  and  _353
REMARK  161  A    between atoms: _353  and  _354
REMARK  162  A    between atoms: _354  and  _355
REMARK  163  A    between atoms: _358  and  _360
REMARK  164  A    between atoms: _360  and  _361
REMARK  165  A    between atoms: _360  and  _363
REMARK  166  A    between atoms: _363  and  _364
REMARK  167  A    between atoms: _369  and  _370
REMARK  168  A    between atoms: _372  and  _374
REMARK  169  A    between atoms: _374  and  _375
REMARK  170  A    between atoms: _374  and  _377
REMARK  171  A    between atoms: _381  and  _382
REMARK  172  A    between atoms: _387  and  _389
REMARK  173  A    between atoms: _389  and  _390
REMARK  174  A    between atoms: _392  and  _394
REMARK  175  A    between atoms: _394  and  _395
REMARK  176  A    between atoms: _397  and  _399
REMARK  177  A    between atoms: _399  and  _400
REMARK  178  A    between atoms: _399  and  _402
REMARK  179  A    between atoms: _402  and  _403
REMARK  180  A    between atoms: _403  and  _404
REMARK  181  A    between atoms: _407  and  _409
REMARK  182  A    between atoms: _409  and  _410
REMARK  183  A    between atoms: _409  and  _412
REMARK  184  A    between atoms: _412  and  _413
REMARK  185  A    between atoms: _413  and  _414
REMARK  186  A    between atoms: _416  and  _418
REMARK  187  A    between atoms: _418  and  _419
REMARK  188  A    between atoms: _418  and  _421
REMARK  189  A    between atoms: _421  and  _422
REMARK  190  A    between atoms: _428  and  _430
REMARK  191  A    between atoms: _430  and  _431
REMARK  192  A    between atoms: _430  and  _433
REMARK  193  A    between atoms: _433  and  _434
REMARK  194  A    between atoms: _439  and  _440
REMARK  195  A    between atoms: _442  and  _444
REMARK  196  A    between atoms: _444  and  _445
REMARK  197  A    between atoms: _444  and  _447
REMARK  198  A    between atoms: _447  and  _448
REMARK  199  A    between atoms: _451  and  _453
REMARK  200  A    between atoms: _453  and  _454
REMARK  201  A    between atoms: _453  and  _456
REMARK  202  A    between atoms: _456  and  _457
REMARK  203  A    between atoms: _457  and  _458
REMARK  204  A    between atoms: _458  and  _459
REMARK  205  A    between atoms: _459  and  _460
REMARK  206  A    between atoms: _465  and  _466
REMARK  207  A    between atoms: _471  and  _473
REMARK  208  A    between atoms: _473  and  _474
REMARK  209  A    between atoms: _473  and  _476
REMARK  210  A    between atoms: _476  and  _477
REMARK  211  A    between atoms: _477  and  _478
REMARK  212  A    between atoms: _481  and  _483
REMARK  213  A    between atoms: _483  and  _484
REMARK  214  A    between atoms: _483  and  _486
REMARK  215  A    between atoms: _486  and  _487
REMARK  216  A    between atoms: _492  and  _494
REMARK  217  A    between atoms: _494  and  _495
REMARK  218  A    between atoms: _494  and  _497
REMARK  219  A    between atoms: _497  and  _498
REMARK  220  A    between atoms: _501  and  _503
REMARK  221  A    between atoms: _503  and  _504
REMARK  222  A    between atoms: _503  and  _506
REMARK  223  A    between atoms: _506  and  _507
REMARK  224  A    between atoms: _510  and  _512
REMARK  225  A    between atoms: _512  and  _513
REMARK  226  A    between atoms: _512  and  _515
REMARK  227  A    between atoms: _515  and  _516
REMARK  228  A    between atoms: _519  and  _521
REMARK  229  A    between atoms: _521  and  _522
REMARK  230  A    between atoms: _521  and  _524
REMARK  231  A    between atoms: _524  and  _525
REMARK  232  A    between atoms: _525  and  _526
REMARK  233  A    between atoms: _531  and  _533
REMARK  234  A    between atoms: _533  and  _534
REMARK  235  A    between atoms: _533  and  _536
REMARK  236  A    between atoms: _539  and  _541
REMARK  237  A    between atoms: _541  and  _542
REMARK  238  A    between atoms: _541  and  _544
REMARK  239  A    between atoms: _544  and  _545
REMARK  240  A    between atoms: _548  and  _550
REMARK  241  A    between atoms: _550  and  _551
REMARK  242  A    between atoms: _550  and  _553
REMARK  243  A    between atoms: _553  and  _554
REMARK  244  A    between atoms: _557  and  _559
REMARK  245  A    between atoms: _559  and  _560
REMARK  246  A    between atoms: _559  and  _562
REMARK  247  A    between atoms: _562  and  _563
REMARK  248  A    between atoms: _569  and  _571
REMARK  249  A    between atoms: _571  and  _572
REMARK  250  A    between atoms: _574  and  _576
REMARK  251  A    between atoms: _576  and  _577
REMARK  252  A    between atoms: _576  and  _579
REMARK  253  A    between atoms: _579  and  _580
REMARK  254  A    between atoms: _586  and  _588
REMARK  255  A    between atoms: _588  and  _589
REMARK  256  A    between atoms: _592  and  _594
REMARK  257  A    between atoms: _594  and  _595
REMARK  258  A    between atoms: _594  and  _597
REMARK  259  A    between atoms: _599  and  _601
REMARK  260  A    between atoms: _601  and  _602
REMARK  261  A    between atoms: _604  and  _606
REMARK  262  A    between atoms: _606  and  _607
REMARK  263  A    between atoms: _606  and  _609
REMARK  264  A    between atoms: _609  and  _610
REMARK  265  A    between atoms: _616  and  _618
REMARK  266  A    between atoms: _618  and  _619
REMARK  267  A    between atoms: _618  and  _621
REMARK  268  A    between atoms: _621  and  _622
REMARK  269  A    between atoms: _627  and  _628
REMARK                            x       y       z     vdW  Elec       q    Type
REMARK                         _______ _______ _______ _____ _____    ______ ____
ROOT
ATOM      1  O   HOH     1       6.494  28.399  29.648  0.00  0.00    +0.000 OA
ENDROOT
TORSDOF 0
REMARK  Name = ../refined-set-2016/1xh4/1xh4_pocket.pdb
REMARK  269 active torsions:
REMARK  status: ('A' for Active; 'I' for Inactive)
REMARK    1  A    between atoms: _1  and  _3
REMARK    2  A    between atoms: _3  and  _4
REMARK    3  A    between atoms: _3  and  _6
REMARK    4  A    between atoms: _6  and  _7
REMARK    5  A    between atoms: _10  and  _12
REMARK    6  A    between atoms: _12  and  _13
REMARK    7  A    between atoms: _12  and  _15
REMARK    8  A    between atoms: _15  and  _16
REMARK    9  A    between atoms: _19  and  _21
REMARK   10  A    between atoms: _21  and  _22
REMARK   11  A    between atoms: _24  and  _26
REMARK   12  A    between atoms: _26  and  _27
REMARK   13  A    between atoms: _26  and  _29
REMARK   14  A    between atoms: _29  and  _30
REMARK   15  A    between atoms: _33  and  _35
REMARK   16  A    between atoms: _35  and  _36
REMARK   17  A    between atoms: _38  and  _40
REMARK   18  A    between atoms: _40  and  _41
REMARK   19  A    between atoms: _40  and  _43
REMARK   20  A    between atoms: _43  and  _44
REMARK   21  A    between atoms: _46  and  _48
REMARK   22  A    between atoms: _48  and  _49
REMARK   23  A    between atoms: _48  and  _51
REMARK   24  A    between atoms: _51  and  _52
REMARK   25  A    between atoms: _58  and  _60
REMARK   26  A    between atoms: _60  and  _61
REMARK   27  A    between atoms: _63  and  _65
REMARK   28  A    between atoms: _65  and  _66
REMARK   29  A    between atoms: _65  and  _68
REMARK   30  A    between atoms: _68  and  _69
REMARK   31  A    between atoms: _69  and  _70
REMARK   32  A    between atoms: _70  and  _71
REMARK   33  A    between atoms: _80  and  _82
REMARK   34  A    between atoms: _82  and  _83
REMARK   35  A    between atoms: _82  and  _85
REMARK   36  A    between atoms: _88  and  _90
REMARK   37  A    between atoms: _90  and  _91
REMARK   38  A    between atoms: _90  and  _93
REMARK   39  A    between atoms: _93  and  _94
REMARK   40  A    between atoms: _94  and  _95
REMARK   41  A    between atoms: _97  and  _99
REMARK   42  A    between atoms: _99  and  _100
REMARK   43  A    between atoms: _99  and  _102
REMARK   44  A    between atoms: _102  and  _103
REMARK   45  A    between atoms: _106  and  _108
REMARK   46  A    between atoms: _108  and  _109
REMARK   47  A    between atoms: _108  and  _111
REMARK   48  A    between atoms: _111  and  _112
REMARK   49  A    between atoms: _117  and  _118
REMARK   50  A    between atoms: _120  and  _122
REMARK   51  A    between atoms: _122  and  _123
REMARK   52  A    between atoms: _126  and  _128
REMARK   53  A    between atoms: _128  and  _129
REMARK   54  A    between atoms: _128  and  _131
REMARK   55  A    between atoms: _131  and  _132
REMARK   56  A    between atoms: _132  and  _133
REMARK   57  A    between atoms: _135  and  _137
REMARK   58  A    between atoms: _137  and  _138
REMARK   59  A    between atoms: _137  and  _140
REMARK   60  A    between atoms: _140  and  _141
REMARK   61  A    between atoms: _141  and  _142
REMARK   62  A    between atoms: _142  and  _143
REMARK   63  A    between atoms: _143  and  _144
REMARK   64  A    between atoms: _148  and  _150
REMARK   65  A    between atoms: _150  and  _151
REMARK   66  A    between atoms: _150  and  _153
REMARK   67  A    between atoms: _153  and  _154
REMARK   68  A    between atoms: _157  and  _159
REMARK   69  A    between atoms: _159  and  _160
REMARK   70  A    between atoms: _159  and  _162
REMARK   71  A    between atoms: _162  and  _163
REMARK   72  A    between atoms: _166  and  _168
REMARK   73  A    between atoms: _168  and  _169
REMARK   74  A    between atoms: _168  and  _171
REMARK   75  A    between atoms: _171  and  _172
REMARK   76  A    between atoms: _175  and  _177
REMARK   77  A    between atoms: _177  and  _178
REMARK   78  A    between atoms: _177  and  _180
REMARK   79  A    between atoms: _180  and  _181
REMARK   80  A    between atoms: _181  and  _182
REMARK   81  A    between atoms: _182  and  _183
REMARK   82  A    between atoms: _183  and  _184
REMARK   83  A    between atoms: _188  and  _190
REMARK   84  A    between atoms: _190  and  _191
REMARK   85  A    between atoms: _190  and  _193
REMARK   86  A    between atoms: _196  and  _198
REMARK   87  A    between atoms: _198  and  _199
REMARK   88  A    between atoms: _198  and  _201
REMARK   89  A    between atoms: _201  and  _202
REMARK   90  A    between atoms: _205  and  _207
REMARK   91  A    between atoms: _207  and  _208
REMARK   92  A    between atoms: _207  and  _210
REMARK   93  A    between atoms: _210  and  _211
REMARK   94  A    between atoms: _211  and  _212
REMARK   95  A    between atoms: _212  and  _213
REMARK   96  A    between atoms: _213  and  _214
REMARK   97  A    between atoms: _218  and  _220
REMARK   98  A    between atoms: _220  and  _221
REMARK   99  A    between atoms: _220  and  _223
REMARK  100  A    between atoms: _223  and  _224
REMARK  101  A    between atoms: _224  and  _225
REMARK  102  A    between atoms: _230  and  _232
REMARK  103  A    between atoms: _232  and  _233
REMARK  104  A    between atoms: _232  and  _235
REMARK  105  A    between atoms: _235  and  _236
REMARK  106  A    between atoms: _239  and  _241
REMARK  107  A    between atoms: _241  and  _242
REMARK  108  A    between atoms: _241  and  _244
REMARK  109  A    between atoms: _244  and  _245
REMARK  110  A    between atoms: _250  and  _252
REMARK  111  A    between atoms: _252  and  _253
REMARK  112  A    between atoms: _252  and  _255
REMARK  113  A    between atoms: _255  and  _256
REMARK  114  A    between atoms: _259  and  _261
REMARK  115  A    between atoms: _261  and  _262
REMARK  116  A    between atoms: _261  and  _264
REMARK  117  A    between atoms: _264  and  _265
REMARK  118  A    between atoms: _268  and  _270
REMARK  119  A    between atoms: _270  and  _271
REMARK  120  A    between atoms: _270  and  _273
REMARK  121  A    between atoms: _273  and  _274
REMARK  122  A    between atoms: _274  and  _275
REMARK  123  A    between atoms: _278  and  _280
REMARK  124  A    between atoms: _280  and  _281
REMARK  125  A    between atoms: _280  and  _283
REMARK  126  A    between atoms: _283  and  _284
REMARK  127  A    between atoms: _284  and  _285
REMARK  128  A    between atoms: _285  and  _286
REMARK  129  A    between atoms: _286  and  _287
REMARK  130  A    between atoms: _291  and  _293
REMARK  131  A    between atoms: _293  and  _294
REMARK  132  A    between atoms: _293  and  _296
REMARK  133  A    between atoms: _296  and  _297
REMARK  134  A    between atoms: _300  and  _302
REMARK  135  A    between atoms: _302  and  _303
REMARK  136  A    between atoms: _302  and  _305
REMARK  137  A    between atoms: _308  and  _310
REMARK  138  A    between atoms: _310  and  _311
REMARK  139  A    between atoms: _310  and  _313
REMARK  140  A    between atoms: _313  and  _314
REMARK  141  A    between atoms: _314  and  _315
REMARK  142  A    between atoms: _315  and  _316
REMARK  143  A    between atoms: _316  and  _317
REMARK  144  A    between atoms: _321  and  _323
REMARK  145  A    between atoms: _323  and  _324
REMARK  146  A    between atoms: _323  and  _326
REMARK  147  A    between atoms: _326  and  _327
REMARK  148  A    between atoms: _330  and  _332
REMARK  149  A    between atoms: _332  and  _333
REMARK  150  A    between atoms: _332  and  _335
REMARK  151  A    between atoms: _335  and  _336
REMARK  152  A    between atoms: _336  and  _337
REMARK  153  A    between atoms: _339  and  _341
REMARK  154  A    between atoms: _341  and  _342
REMARK  155  A    between atoms: _341  and  _344
REMARK  156  A    between atoms: _344  and  _345
REMARK  157  A    between atoms: _345  and  _346
REMARK  158  A    between atoms: _348  and  _350
REMARK  159  A    between atoms: _350  and  _351
REMARK  160  A    between atoms: _350  and  _353
REMARK  161  A    between atoms: _353  and  _354
REMARK  162  A    between atoms: _354  and  _355
REMARK  163  A    between atoms: _358  and  _360
REMARK  164  A    between atoms: _360  and  _361
REMARK  165  A    between atoms: _360  and  _363
REMARK  166  A    between atoms: _363  and  _364
REMARK  167  A    between atoms: _369  and  _370
REMARK  168  A    between atoms: _372  and  _374
REMARK  169  A    between atoms: _374  and  _375
REMARK  170  A    between atoms: _374  and  _377
REMARK  171  A    between atoms: _381  and  _382
REMARK  172  A    between atoms: _387  and  _389
REMARK  173  A    between atoms: _389  and  _390
REMARK  174  A    between atoms: _392  and  _394
REMARK  175  A    between atoms: _394  and  _395
REMARK  176  A    between atoms: _397  and  _399
REMARK  177  A    between atoms: _399  and  _400
REMARK  178  A    between atoms: _399  and  _402
REMARK  179  A    between atoms: _402  and  _403
REMARK  180  A    between atoms: _403  and  _404
REMARK  181  A    between atoms: _407  and  _409
REMARK  182  A    between atoms: _409  and  _410
REMARK  183  A    between atoms: _409  and  _412
REMARK  184  A    between atoms: _412  and  _413
REMARK  185  A    between atoms: _413  and  _414
REMARK  186  A    between atoms: _416  and  _418
REMARK  187  A    between atoms: _418  and  _419
REMARK  188  A    between atoms: _418  and  _421
REMARK  189  A    between atoms: _421  and  _422
REMARK  190  A    between atoms: _428  and  _430
REMARK  191  A    between atoms: _430  and  _431
REMARK  192  A    between atoms: _430  and  _433
REMARK  193  A    between atoms: _433  and  _434
REMARK  194  A    between atoms: _439  and  _440
REMARK  195  A    between atoms: _442  and  _444
REMARK  196  A    between atoms: _444  and  _445
REMARK  197  A    between atoms: _444  and  _447
REMARK  198  A    between atoms: _447  and  _448
REMARK  199  A    between atoms: _451  and  _453
REMARK  200  A    between atoms: _453  and  _454
REMARK  201  A    between atoms: _453  and  _456
REMARK  202  A    between atoms: _456  and  _457
REMARK  203  A    between atoms: _457  and  _458
REMARK  204  A    between atoms: _458  and  _459
REMARK  205  A    between atoms: _459  and  _460
REMARK  206  A    between atoms: _465  and  _466
REMARK  207  A    between atoms: _471  and  _473
REMARK  208  A    between atoms: _473  and  _474
REMARK  209  A    between atoms: _473  and  _476
REMARK  210  A    between atoms: _476  and  _477
REMARK  211  A    between atoms: _477  and  _478
REMARK  212  A    between atoms: _481  and  _483
REMARK  213  A    between atoms: _483  and  _484
REMARK  214  A    between atoms: _483  and  _486
REMARK  215  A    between atoms: _486  and  _487
REMARK  216  A    between atoms: _492  and  _494
REMARK  217  A    between atoms: _494  and  _495
REMARK  218  A    between atoms: _494  and  _497
REMARK  219  A    between atoms: _497  and  _498
REMARK  220  A    between atoms: _501  and  _503
REMARK  221  A    between atoms: _503  and  _504
REMARK  222  A    between atoms: _503  and  _506
REMARK  223  A    between atoms: _506  and  _507
REMARK  224  A    between atoms: _510  and  _512
REMARK  225  A    between atoms: _512  and  _513
REMARK  226  A    between atoms: _512  and  _515
REMARK  227  A    between atoms: _515  and  _516
REMARK  228  A    between atoms: _519  and  _521
REMARK  229  A    between atoms: _521  and  _522
REMARK  230  A    between atoms: _521  and  _524
REMARK  231  A    between atoms: _524  and  _525
REMARK  232  A    between atoms: _525  and  _526
REMARK  233  A    between atoms: _531  and  _533
REMARK  234  A    between atoms: _533  and  _534
REMARK  235  A    between atoms: _533  and  _536
REMARK  236  A    between atoms: _539  and  _541
REMARK  237  A    between atoms: _541  and  _542
REMARK  238  A    between atoms: _541  and  _544
REMARK  239  A    between atoms: _544  and  _545
REMARK  240  A    between atoms: _548  and  _550
REMARK  241  A    between atoms: _550  and  _551
REMARK  242  A    between atoms: _550  and  _553
REMARK  243  A    between atoms: _553  and  _554
REMARK  244  A    between atoms: _557  and  _559
REMARK  245  A    between atoms: _559  and  _560
REMARK  246  A    between atoms: _559  and  _562
REMARK  247  A    between atoms: _562  and  _563
REMARK  248  A    between atoms: _569  and  _571
REMARK  249  A    between atoms: _571  and  _572
REMARK  250  A    between atoms: _574  and  _576
REMARK  251  A    between atoms: _576  and  _577
REMARK  252  A    between atoms: _576  and  _579
REMARK  253  A    between atoms: _579  and  _580
REMARK  254  A    between atoms: _586  and  _588
REMARK  255  A    between atoms: _588  and  _589
REMARK  256  A    between atoms: _592  and  _594
REMARK  257  A    between atoms: _594  and  _595
REMARK  258  A    between atoms: _594  and  _597
REMARK  259  A    between atoms: _599  and  _601
REMARK  260  A    between atoms: _601  and  _602
REMARK  261  A    between atoms: _604  and  _606
REMARK  262  A    between atoms: _606  and  _607
REMARK  263  A    between atoms: _606  and  _609
REMARK  264  A    between atoms: _609  and  _610
REMARK  265  A    between atoms: _616  and  _618
REMARK  266  A    between atoms: _618  and  _619
REMARK  267  A    between atoms: _618  and  _621
REMARK  268  A    between atoms: _621  and  _622
REMARK  269  A    between atoms: _627  and  _628
REMARK                            x       y       z     vdW  Elec       q    Type
REMARK                         _______ _______ _______ _____ _____    ______ ____
ROOT
ATOM      1  O   HOH     1       4.158  16.024  26.177  0.00  0.00    +0.000 OA
ENDROOT
TORSDOF 0
REMARK  Name = ../refined-set-2016/1xh4/1xh4_pocket.pdb
REMARK  269 active torsions:
REMARK  status: ('A' for Active; 'I' for Inactive)
REMARK    1  A    between atoms: _1  and  _3
REMARK    2  A    between atoms: _3  and  _4
REMARK    3  A    between atoms: _3  and  _6
REMARK    4  A    between atoms: _6  and  _7
REMARK    5  A    between atoms: _10  and  _12
REMARK    6  A    between atoms: _12  and  _13
REMARK    7  A    between atoms: _12  and  _15
REMARK    8  A    between atoms: _15  and  _16
REMARK    9  A    between atoms: _19  and  _21
REMARK   10  A    between atoms: _21  and  _22
REMARK   11  A    between atoms: _24  and  _26
REMARK   12  A    between atoms: _26  and  _27
REMARK   13  A    between atoms: _26  and  _29
REMARK   14  A    between atoms: _29  and  _30
REMARK   15  A    between atoms: _33  and  _35
REMARK   16  A    between atoms: _35  and  _36
REMARK   17  A    between atoms: _38  and  _40
REMARK   18  A    between atoms: _40  and  _41
REMARK   19  A    between atoms: _40  and  _43
REMARK   20  A    between atoms: _43  and  _44
REMARK   21  A    between atoms: _46  and  _48
REMARK   22  A    between atoms: _48  and  _49
REMARK   23  A    between atoms: _48  and  _51
REMARK   24  A    between atoms: _51  and  _52
REMARK   25  A    between atoms: _58  and  _60
REMARK   26  A    between atoms: _60  and  _61
REMARK   27  A    between atoms: _63  and  _65
REMARK   28  A    between atoms: _65  and  _66
REMARK   29  A    between atoms: _65  and  _68
REMARK   30  A    between atoms: _68  and  _69
REMARK   31  A    between atoms: _69  and  _70
REMARK   32  A    between atoms: _70  and  _71
REMARK   33  A    between atoms: _80  and  _82
REMARK   34  A    between atoms: _82  and  _83
REMARK   35  A    between atoms: _82  and  _85
REMARK   36  A    between atoms: _88  and  _90
REMARK   37  A    between atoms: _90  and  _91
REMARK   38  A    between atoms: _90  and  _93
REMARK   39  A    between atoms: _93  and  _94
REMARK   40  A    between atoms: _94  and  _95
REMARK   41  A    between atoms: _97  and  _99
REMARK   42  A    between atoms: _99  and  _100
REMARK   43  A    between atoms: _99  and  _102
REMARK   44  A    between atoms: _102  and  _103
REMARK   45  A    between atoms: _106  and  _108
REMARK   46  A    between atoms: _108  and  _109
REMARK   47  A    between atoms: _108  and  _111
REMARK   48  A    between atoms: _111  and  _112
REMARK   49  A    between atoms: _117  and  _118
REMARK   50  A    between atoms: _120  and  _122
REMARK   51  A    between atoms: _122  and  _123
REMARK   52  A    between atoms: _126  and  _128
REMARK   53  A    between atoms: _128  and  _129
REMARK   54  A    between atoms: _128  and  _131
REMARK   55  A    between atoms: _131  and  _132
REMARK   56  A    between atoms: _132  and  _133
REMARK   57  A    between atoms: _135  and  _137
REMARK   58  A    between atoms: _137  and  _138
REMARK   59  A    between atoms: _137  and  _140
REMARK   60  A    between atoms: _140  and  _141
REMARK   61  A    between atoms: _141  and  _142
REMARK   62  A    between atoms: _142  and  _143
REMARK   63  A    between atoms: _143  and  _144
REMARK   64  A    between atoms: _148  and  _150
REMARK   65  A    between atoms: _150  and  _151
REMARK   66  A    between atoms: _150  and  _153
REMARK   67  A    between atoms: _153  and  _154
REMARK   68  A    between atoms: _157  and  _159
REMARK   69  A    between atoms: _159  and  _160
REMARK   70  A    between atoms: _159  and  _162
REMARK   71  A    between atoms: _162  and  _163
REMARK   72  A    between atoms: _166  and  _168
REMARK   73  A    between atoms: _168  and  _169
REMARK   74  A    between atoms: _168  and  _171
REMARK   75  A    between atoms: _171  and  _172
REMARK   76  A    between atoms: _175  and  _177
REMARK   77  A    between atoms: _177  and  _178
REMARK   78  A    between atoms: _177  and  _180
REMARK   79  A    between atoms: _180  and  _181
REMARK   80  A    between atoms: _181  and  _182
REMARK   81  A    between atoms: _182  and  _183
REMARK   82  A    between atoms: _183  and  _184
REMARK   83  A    between atoms: _188  and  _190
REMARK   84  A    between atoms: _190  and  _191
REMARK   85  A    between atoms: _190  and  _193
REMARK   86  A    between atoms: _196  and  _198
REMARK   87  A    between atoms: _198  and  _199
REMARK   88  A    between atoms: _198  and  _201
REMARK   89  A    between atoms: _201  and  _202
REMARK   90  A    between atoms: _205  and  _207
REMARK   91  A    between atoms: _207  and  _208
REMARK   92  A    between atoms: _207  and  _210
REMARK   93  A    between atoms: _210  and  _211
REMARK   94  A    between atoms: _211  and  _212
REMARK   95  A    between atoms: _212  and  _213
REMARK   96  A    between atoms: _213  and  _214
REMARK   97  A    between atoms: _218  and  _220
REMARK   98  A    between atoms: _220  and  _221
REMARK   99  A    between atoms: _220  and  _223
REMARK  100  A    between atoms: _223  and  _224
REMARK  101  A    between atoms: _224  and  _225
REMARK  102  A    between atoms: _230  and  _232
REMARK  103  A    between atoms: _232  and  _233
REMARK  104  A    between atoms: _232  and  _235
REMARK  105  A    between atoms: _235  and  _236
REMARK  106  A    between atoms: _239  and  _241
REMARK  107  A    between atoms: _241  and  _242
REMARK  108  A    between atoms: _241  and  _244
REMARK  109  A    between atoms: _244  and  _245
REMARK  110  A    between atoms: _250  and  _252
REMARK  111  A    between atoms: _252  and  _253
REMARK  112  A    between atoms: _252  and  _255
REMARK  113  A    between atoms: _255  and  _256
REMARK  114  A    between atoms: _259  and  _261
REMARK  115  A    between atoms: _261  and  _262
REMARK  116  A    between atoms: _261  and  _264
REMARK  117  A    between atoms: _264  and  _265
REMARK  118  A    between atoms: _268  and  _270
REMARK  119  A    between atoms: _270  and  _271
REMARK  120  A    between atoms: _270  and  _273
REMARK  121  A    between atoms: _273  and  _274
REMARK  122  A    between atoms: _274  and  _275
REMARK  123  A    between atoms: _278  and  _280
REMARK  124  A    between atoms: _280  and  _281
REMARK  125  A    between atoms: _280  and  _283
REMARK  126  A    between atoms: _283  and  _284
REMARK  127  A    between atoms: _284  and  _285
REMARK  128  A    between atoms: _285  and  _286
REMARK  129  A    between atoms: _286  and  _287
REMARK  130  A    between atoms: _291  and  _293
REMARK  131  A    between atoms: _293  and  _294
REMARK  132  A    between atoms: _293  and  _296
REMARK  133  A    between atoms: _296  and  _297
REMARK  134  A    between atoms: _300  and  _302
REMARK  135  A    between atoms: _302  and  _303
REMARK  136  A    between atoms: _302  and  _305
REMARK  137  A    between atoms: _308  and  _310
REMARK  138  A    between atoms: _310  and  _311
REMARK  139  A    between atoms: _310  and  _313
REMARK  140  A    between atoms: _313  and  _314
REMARK  141  A    between atoms: _314  and  _315
REMARK  142  A    between atoms: _315  and  _316
REMARK  143  A    between atoms: _316  and  _317
REMARK  144  A    between atoms: _321  and  _323
REMARK  145  A    between atoms: _323  and  _324
REMARK  146  A    between atoms: _323  and  _326
REMARK  147  A    between atoms: _326  and  _327
REMARK  148  A    between atoms: _330  and  _332
REMARK  149  A    between atoms: _332  and  _333
REMARK  150  A    between atoms: _332  and  _335
REMARK  151  A    between atoms: _335  and  _336
REMARK  152  A    between atoms: _336  and  _337
REMARK  153  A    between atoms: _339  and  _341
REMARK  154  A    between atoms: _341  and  _342
REMARK  155  A    between atoms: _341  and  _344
REMARK  156  A    between atoms: _344  and  _345
REMARK  157  A    between atoms: _345  and  _346
REMARK  158  A    between atoms: _348  and  _350
REMARK  159  A    between atoms: _350  and  _351
REMARK  160  A    between atoms: _350  and  _353
REMARK  161  A    between atoms: _353  and  _354
REMARK  162  A    between atoms: _354  and  _355
REMARK  163  A    between atoms: _358  and  _360
REMARK  164  A    between atoms: _360  and  _361
REMARK  165  A    between atoms: _360  and  _363
REMARK  166  A    between atoms: _363  and  _364
REMARK  167  A    between atoms: _369  and  _370
REMARK  168  A    between atoms: _372  and  _374
REMARK  169  A    between atoms: _374  and  _375
REMARK  170  A    between atoms: _374  and  _377
REMARK  171  A    between atoms: _381  and  _382
REMARK  172  A    between atoms: _387  and  _389
REMARK  173  A    between atoms: _389  and  _390
REMARK  174  A    between atoms: _392  and  _394
REMARK  175  A    between atoms: _394  and  _395
REMARK  176  A    between atoms: _397  and  _399
REMARK  177  A    between atoms: _399  and  _400
REMARK  178  A    between atoms: _399  and  _402
REMARK  179  A    between atoms: _402  and  _403
REMARK  180  A    between atoms: _403  and  _404
REMARK  181  A    between atoms: _407  and  _409
REMARK  182  A    between atoms: _409  and  _410
REMARK  183  A    between atoms: _409  and  _412
REMARK  184  A    between atoms: _412  and  _413
REMARK  185  A    between atoms: _413  and  _414
REMARK  186  A    between atoms: _416  and  _418
REMARK  187  A    between atoms: _418  and  _419
REMARK  188  A    between atoms: _418  and  _421
REMARK  189  A    between atoms: _421  and  _422
REMARK  190  A    between atoms: _428  and  _430
REMARK  191  A    between atoms: _430  and  _431
REMARK  192  A    between atoms: _430  and  _433
REMARK  193  A    between atoms: _433  and  _434
REMARK  194  A    between atoms: _439  and  _440
REMARK  195  A    between atoms: _442  and  _444
REMARK  196  A    between atoms: _444  and  _445
REMARK  197  A    between atoms: _444  and  _447
REMARK  198  A    between atoms: _447  and  _448
REMARK  199  A    between atoms: _451  and  _453
REMARK  200  A    between atoms: _453  and  _454
REMARK  201  A    between atoms: _453  and  _456
REMARK  202  A    between atoms: _456  and  _457
REMARK  203  A    between atoms: _457  and  _458
REMARK  204  A    between atoms: _458  and  _459
REMARK  205  A    between atoms: _459  and  _460
REMARK  206  A    between atoms: _465  and  _466
REMARK  207  A    between atoms: _471  and  _473
REMARK  208  A    between atoms: _473  and  _474
REMARK  209  A    between atoms: _473  and  _476
REMARK  210  A    between atoms: _476  and  _477
REMARK  211  A    between atoms: _477  and  _478
REMARK  212  A    between atoms: _481  and  _483
REMARK  213  A    between atoms: _483  and  _484
REMARK  214  A    between atoms: _483  and  _486
REMARK  215  A    between atoms: _486  and  _487
REMARK  216  A    between atoms: _492  and  _494
REMARK  217  A    between atoms: _494  and  _495
REMARK  218  A    between atoms: _494  and  _497
REMARK  219  A    between atoms: _497  and  _498
REMARK  220  A    between atoms: _501  and  _503
REMARK  221  A    between atoms: _503  and  _504
REMARK  222  A    between atoms: _503  and  _506
REMARK  223  A    between atoms: _506  and  _507
REMARK  224  A    between atoms: _510  and  _512
REMARK  225  A    between atoms: _512  and  _513
REMARK  226  A    between atoms: _512  and  _515
REMARK  227  A    between atoms: _515  and  _516
REMARK  228  A    between atoms: _519  and  _521
REMARK  229  A    between atoms: _521  and  _522
REMARK  230  A    between atoms: _521  and  _524
REMARK  231  A    between atoms: _524  and  _525
REMARK  232  A    between atoms: _525  and  _526
REMARK  233  A    between atoms: _531  and  _533
REMARK  234  A    between atoms: _533  and  _534
REMARK  235  A    between atoms: _533  and  _536
REMARK  236  A    between atoms: _539  and  _541
REMARK  237  A    between atoms: _541  and  _542
REMARK  238  A    between atoms: _541  and  _544
REMARK  239  A    between atoms: _544  and  _545
REMARK  240  A    between atoms: _548  and  _550
REMARK  241  A    between atoms: _550  and  _551
REMARK  242  A    between atoms: _550  and  _553
REMARK  243  A    between atoms: _553  and  _554
REMARK  244  A    between atoms: _557  and  _559
REMARK  245  A    between atoms: _559  and  _560
REMARK  246  A    between atoms: _559  and  _562
REMARK  247  A    between atoms: _562  and  _563
REMARK  248  A    between atoms: _569  and  _571
REMARK  249  A    between atoms: _571  and  _572
REMARK  250  A    between atoms: _574  and  _576
REMARK  251  A    between atoms: _576  and  _577
REMARK  252  A    between atoms: _576  and  _579
REMARK  253  A    between atoms: _579  and  _580
REMARK  254  A    between atoms: _586  and  _588
REMARK  255  A    between atoms: _588  and  _589
REMARK  256  A    between atoms: _592  and  _594
REMARK  257  A    between atoms: _594  and  _595
REMARK  258  A    between atoms: _594  and  _597
REMARK  259  A    between atoms: _599  and  _601
REMARK  260  A    between atoms: _601  and  _602
REMARK  261  A    between atoms: _604  and  _606
REMARK  262  A    between atoms: _606  and  _607
REMARK  263  A    between atoms: _606  and  _609
REMARK  264  A    between atoms: _609  and  _610
REMARK  265  A    between atoms: _616  and  _618
REMARK  266  A    between atoms: _618  and  _619
REMARK  267  A    between atoms: _618  and  _621
REMARK  268  A    between atoms: _621  and  _622
REMARK  269  A    between atoms: _627  and  _628
REMARK                            x       y       z     vdW  Elec       q    Type
REMARK                         _______ _______ _______ _____ _____    ______ ____
ROOT
ATOM      1  O   HOH     1      20.952  24.281  28.496  0.00  0.00    +0.000 OA
ENDROOT
TORSDOF 0
REMARK  Name = ../refined-set-2016/1xh4/1xh4_pocket.pdb
REMARK  269 active torsions:
REMARK  status: ('A' for Active; 'I' for Inactive)
REMARK    1  A    between atoms: _1  and  _3
REMARK    2  A    between atoms: _3  and  _4
REMARK    3  A    between atoms: _3  and  _6
REMARK    4  A    between atoms: _6  and  _7
REMARK    5  A    between atoms: _10  and  _12
REMARK    6  A    between atoms: _12  and  _13
REMARK    7  A    between atoms: _12  and  _15
REMARK    8  A    between atoms: _15  and  _16
REMARK    9  A    between atoms: _19  and  _21
REMARK   10  A    between atoms: _21  and  _22
REMARK   11  A    between atoms: _24  and  _26
REMARK   12  A    between atoms: _26  and  _27
REMARK   13  A    between atoms: _26  and  _29
REMARK   14  A    between atoms: _29  and  _30
REMARK   15  A    between atoms: _33  and  _35
REMARK   16  A    between atoms: _35  and  _36
REMARK   17  A    between atoms: _38  and  _40
REMARK   18  A    between atoms: _40  and  _41
REMARK   19  A    between atoms: _40  and  _43
REMARK   20  A    between atoms: _43  and  _44
REMARK   21  A    between atoms: _46  and  _48
REMARK   22  A    between atoms: _48  and  _49
REMARK   23  A    between atoms: _48  and  _51
REMARK   24  A    between atoms: _51  and  _52
REMARK   25  A    between atoms: _58  and  _60
REMARK   26  A    between atoms: _60  and  _61
REMARK   27  A    between atoms: _63  and  _65
REMARK   28  A    between atoms: _65  and  _66
REMARK   29  A    between atoms: _65  and  _68
REMARK   30  A    between atoms: _68  and  _69
REMARK   31  A    between atoms: _69  and  _70
REMARK   32  A    between atoms: _70  and  _71
REMARK   33  A    between atoms: _80  and  _82
REMARK   34  A    between atoms: _82  and  _83
REMARK   35  A    between atoms: _82  and  _85
REMARK   36  A    between atoms: _88  and  _90
REMARK   37  A    between atoms: _90  and  _91
REMARK   38  A    between atoms: _90  and  _93
REMARK   39  A    between atoms: _93  and  _94
REMARK   40  A    between atoms: _94  and  _95
REMARK   41  A    between atoms: _97  and  _99
REMARK   42  A    between atoms: _99  and  _100
REMARK   43  A    between atoms: _99  and  _102
REMARK   44  A    between atoms: _102  and  _103
REMARK   45  A    between atoms: _106  and  _108
REMARK   46  A    between atoms: _108  and  _109
REMARK   47  A    between atoms: _108  and  _111
REMARK   48  A    between atoms: _111  and  _112
REMARK   49  A    between atoms: _117  and  _118
REMARK   50  A    between atoms: _120  and  _122
REMARK   51  A    between atoms: _122  and  _123
REMARK   52  A    between atoms: _126  and  _128
REMARK   53  A    between atoms: _128  and  _129
REMARK   54  A    between atoms: _128  and  _131
REMARK   55  A    between atoms: _131  and  _132
REMARK   56  A    between atoms: _132  and  _133
REMARK   57  A    between atoms: _135  and  _137
REMARK   58  A    between atoms: _137  and  _138
REMARK   59  A    between atoms: _137  and  _140
REMARK   60  A    between atoms: _140  and  _141
REMARK   61  A    between atoms: _141  and  _142
REMARK   62  A    between atoms: _142  and  _143
REMARK   63  A    between atoms: _143  and  _144
REMARK   64  A    between atoms: _148  and  _150
REMARK   65  A    between atoms: _150  and  _151
REMARK   66  A    between atoms: _150  and  _153
REMARK   67  A    between atoms: _153  and  _154
REMARK   68  A    between atoms: _157  and  _159
REMARK   69  A    between atoms: _159  and  _160
REMARK   70  A    between atoms: _159  and  _162
REMARK   71  A    between atoms: _162  and  _163
REMARK   72  A    between atoms: _166  and  _168
REMARK   73  A    between atoms: _168  and  _169
REMARK   74  A    between atoms: _168  and  _171
REMARK   75  A    between atoms: _171  and  _172
REMARK   76  A    between atoms: _175  and  _177
REMARK   77  A    between atoms: _177  and  _178
REMARK   78  A    between atoms: _177  and  _180
REMARK   79  A    between atoms: _180  and  _181
REMARK   80  A    between atoms: _181  and  _182
REMARK   81  A    between atoms: _182  and  _183
REMARK   82  A    between atoms: _183  and  _184
REMARK   83  A    between atoms: _188  and  _190
REMARK   84  A    between atoms: _190  and  _191
REMARK   85  A    between atoms: _190  and  _193
REMARK   86  A    between atoms: _196  and  _198
REMARK   87  A    between atoms: _198  and  _199
REMARK   88  A    between atoms: _198  and  _201
REMARK   89  A    between atoms: _201  and  _202
REMARK   90  A    between atoms: _205  and  _207
REMARK   91  A    between atoms: _207  and  _208
REMARK   92  A    between atoms: _207  and  _210
REMARK   93  A    between atoms: _210  and  _211
REMARK   94  A    between atoms: _211  and  _212
REMARK   95  A    between atoms: _212  and  _213
REMARK   96  A    between atoms: _213  and  _214
REMARK   97  A    between atoms: _218  and  _220
REMARK   98  A    between atoms: _220  and  _221
REMARK   99  A    between atoms: _220  and  _223
REMARK  100  A    between atoms: _223  and  _224
REMARK  101  A    between atoms: _224  and  _225
REMARK  102  A    between atoms: _230  and  _232
REMARK  103  A    between atoms: _232  and  _233
REMARK  104  A    between atoms: _232  and  _235
REMARK  105  A    between atoms: _235  and  _236
REMARK  106  A    between atoms: _239  and  _241
REMARK  107  A    between atoms: _241  and  _242
REMARK  108  A    between atoms: _241  and  _244
REMARK  109  A    between atoms: _244  and  _245
REMARK  110  A    between atoms: _250  and  _252
REMARK  111  A    between atoms: _252  and  _253
REMARK  112  A    between atoms: _252  and  _255
REMARK  113  A    between atoms: _255  and  _256
REMARK  114  A    between atoms: _259  and  _261
REMARK  115  A    between atoms: _261  and  _262
REMARK  116  A    between atoms: _261  and  _264
REMARK  117  A    between atoms: _264  and  _265
REMARK  118  A    between atoms: _268  and  _270
REMARK  119  A    between atoms: _270  and  _271
REMARK  120  A    between atoms: _270  and  _273
REMARK  121  A    between atoms: _273  and  _274
REMARK  122  A    between atoms: _274  and  _275
REMARK  123  A    between atoms: _278  and  _280
REMARK  124  A    between atoms: _280  and  _281
REMARK  125  A    between atoms: _280  and  _283
REMARK  126  A    between atoms: _283  and  _284
REMARK  127  A    between atoms: _284  and  _285
REMARK  128  A    between atoms: _285  and  _286
REMARK  129  A    between atoms: _286  and  _287
REMARK  130  A    between atoms: _291  and  _293
REMARK  131  A    between atoms: _293  and  _294
REMARK  132  A    between atoms: _293  and  _296
REMARK  133  A    between atoms: _296  and  _297
REMARK  134  A    between atoms: _300  and  _302
REMARK  135  A    between atoms: _302  and  _303
REMARK  136  A    between atoms: _302  and  _305
REMARK  137  A    between atoms: _308  and  _310
REMARK  138  A    between atoms: _310  and  _311
REMARK  139  A    between atoms: _310  and  _313
REMARK  140  A    between atoms: _313  and  _314
REMARK  141  A    between atoms: _314  and  _315
REMARK  142  A    between atoms: _315  and  _316
REMARK  143  A    between atoms: _316  and  _317
REMARK  144  A    between atoms: _321  and  _323
REMARK  145  A    between atoms: _323  and  _324
REMARK  146  A    between atoms: _323  and  _326
REMARK  147  A    between atoms: _326  and  _327
REMARK  148  A    between atoms: _330  and  _332
REMARK  149  A    between atoms: _332  and  _333
REMARK  150  A    between atoms: _332  and  _335
REMARK  151  A    between atoms: _335  and  _336
REMARK  152  A    between atoms: _336  and  _337
REMARK  153  A    between atoms: _339  and  _341
REMARK  154  A    between atoms: _341  and  _342
REMARK  155  A    between atoms: _341  and  _344
REMARK  156  A    between atoms: _344  and  _345
REMARK  157  A    between atoms: _345  and  _346
REMARK  158  A    between atoms: _348  and  _350
REMARK  159  A    between atoms: _350  and  _351
REMARK  160  A    between atoms: _350  and  _353
REMARK  161  A    between atoms: _353  and  _354
REMARK  162  A    between atoms: _354  and  _355
REMARK  163  A    between atoms: _358  and  _360
REMARK  164  A    between atoms: _360  and  _361
REMARK  165  A    between atoms: _360  and  _363
REMARK  166  A    between atoms: _363  and  _364
REMARK  167  A    between atoms: _369  and  _370
REMARK  168  A    between atoms: _372  and  _374
REMARK  169  A    between atoms: _374  and  _375
REMARK  170  A    between atoms: _374  and  _377
REMARK  171  A    between atoms: _381  and  _382
REMARK  172  A    between atoms: _387  and  _389
REMARK  173  A    between atoms: _389  and  _390
REMARK  174  A    between atoms: _392  and  _394
REMARK  175  A    between atoms: _394  and  _395
REMARK  176  A    between atoms: _397  and  _399
REMARK  177  A    between atoms: _399  and  _400
REMARK  178  A    between atoms: _399  and  _402
REMARK  179  A    between atoms: _402  and  _403
REMARK  180  A    between atoms: _403  and  _404
REMARK  181  A    between atoms: _407  and  _409
REMARK  182  A    between atoms: _409  and  _410
REMARK  183  A    between atoms: _409  and  _412
REMARK  184  A    between atoms: _412  and  _413
REMARK  185  A    between atoms: _413  and  _414
REMARK  186  A    between atoms: _416  and  _418
REMARK  187  A    between atoms: _418  and  _419
REMARK  188  A    between atoms: _418  and  _421
REMARK  189  A    between atoms: _421  and  _422
REMARK  190  A    between atoms: _428  and  _430
REMARK  191  A    between atoms: _430  and  _431
REMARK  192  A    between atoms: _430  and  _433
REMARK  193  A    between atoms: _433  and  _434
REMARK  194  A    between atoms: _439  and  _440
REMARK  195  A    between atoms: _442  and  _444
REMARK  196  A    between atoms: _444  and  _445
REMARK  197  A    between atoms: _444  and  _447
REMARK  198  A    between atoms: _447  and  _448
REMARK  199  A    between atoms: _451  and  _453
REMARK  200  A    between atoms: _453  and  _454
REMARK  201  A    between atoms: _453  and  _456
REMARK  202  A    between atoms: _456  and  _457
REMARK  203  A    between atoms: _457  and  _458
REMARK  204  A    between atoms: _458  and  _459
REMARK  205  A    between atoms: _459  and  _460
REMARK  206  A    between atoms: _465  and  _466
REMARK  207  A    between atoms: _471  and  _473
REMARK  208  A    between atoms: _473  and  _474
REMARK  209  A    between atoms: _473  and  _476
REMARK  210  A    between atoms: _476  and  _477
REMARK  211  A    between atoms: _477  and  _478
REMARK  212  A    between atoms: _481  and  _483
REMARK  213  A    between atoms: _483  and  _484
REMARK  214  A    between atoms: _483  and  _486
REMARK  215  A    between atoms: _486  and  _487
REMARK  216  A    between atoms: _492  and  _494
REMARK  217  A    between atoms: _494  and  _495
REMARK  218  A    between atoms: _494  and  _497
REMARK  219  A    between atoms: _497  and  _498
REMARK  220  A    between atoms: _501  and  _503
REMARK  221  A    between atoms: _503  and  _504
REMARK  222  A    between atoms: _503  and  _506
REMARK  223  A    between atoms: _506  and  _507
REMARK  224  A    between atoms: _510  and  _512
REMARK  225  A    between atoms: _512  and  _513
REMARK  226  A    between atoms: _512  and  _515
REMARK  227  A    between atoms: _515  and  _516
REMARK  228  A    between atoms: _519  and  _521
REMARK  229  A    between atoms: _521  and  _522
REMARK  230  A    between atoms: _521  and  _524
REMARK  231  A    between atoms: _524  and  _525
REMARK  232  A    between atoms: _525  and  _526
REMARK  233  A    between atoms: _531  and  _533
REMARK  234  A    between atoms: _533  and  _534
REMARK  235  A    between atoms: _533  and  _536
REMARK  236  A    between atoms: _539  and  _541
REMARK  237  A    between atoms: _541  and  _542
REMARK  238  A    between atoms: _541  and  _544
REMARK  239  A    between atoms: _544  and  _545
REMARK  240  A    between atoms: _548  and  _550
REMARK  241  A    between atoms: _550  and  _551
REMARK  242  A    between atoms: _550  and  _553
REMARK  243  A    between atoms: _553  and  _554
REMARK  244  A    between atoms: _557  and  _559
REMARK  245  A    between atoms: _559  and  _560
REMARK  246  A    between atoms: _559  and  _562
REMARK  247  A    between atoms: _562  and  _563
REMARK  248  A    between atoms: _569  and  _571
REMARK  249  A    between atoms: _571  and  _572
REMARK  250  A    between atoms: _574  and  _576
REMARK  251  A    between atoms: _576  and  _577
REMARK  252  A    between atoms: _576  and  _579
REMARK  253  A    between atoms: _579  and  _580
REMARK  254  A    between atoms: _586  and  _588
REMARK  255  A    between atoms: _588  and  _589
REMARK  256  A    between atoms: _592  and  _594
REMARK  257  A    between atoms: _594  and  _595
REMARK  258  A    between atoms: _594  and  _597
REMARK  259  A    between atoms: _599  and  _601
REMARK  260  A    between atoms: _601  and  _602
REMARK  261  A    between atoms: _604  and  _606
REMARK  262  A    between atoms: _606  and  _607
REMARK  263  A    between atoms: _606  and  _609
REMARK  264  A    between atoms: _609  and  _610
REMARK  265  A    between atoms: _616  and  _618
REMARK  266  A    between atoms: _618  and  _619
REMARK  267  A    between atoms: _618  and  _621
REMARK  268  A    between atoms: _621  and  _622
REMARK  269  A    between atoms: _627  and  _628
REMARK                            x       y       z     vdW  Elec       q    Type
REMARK                         _______ _______ _______ _____ _____    ______ ____
ROOT
ATOM      1  O   HOH     1       2.044  21.026  30.072  0.00  0.00    +0.000 OA
ENDROOT
TORSDOF 0
REMARK  Name = ../refined-set-2016/1xh4/1xh4_pocket.pdb
REMARK  269 active torsions:
REMARK  status: ('A' for Active; 'I' for Inactive)
REMARK    1  A    between atoms: _1  and  _3
REMARK    2  A    between atoms: _3  and  _4
REMARK    3  A    between atoms: _3  and  _6
REMARK    4  A    between atoms: _6  and  _7
REMARK    5  A    between atoms: _10  and  _12
REMARK    6  A    between atoms: _12  and  _13
REMARK    7  A    between atoms: _12  and  _15
REMARK    8  A    between atoms: _15  and  _16
REMARK    9  A    between atoms: _19  and  _21
REMARK   10  A    between atoms: _21  and  _22
REMARK   11  A    between atoms: _24  and  _26
REMARK   12  A    between atoms: _26  and  _27
REMARK   13  A    between atoms: _26  and  _29
REMARK   14  A    between atoms: _29  and  _30
REMARK   15  A    between atoms: _33  and  _35
REMARK   16  A    between atoms: _35  and  _36
REMARK   17  A    between atoms: _38  and  _40
REMARK   18  A    between atoms: _40  and  _41
REMARK   19  A    between atoms: _40  and  _43
REMARK   20  A    between atoms: _43  and  _44
REMARK   21  A    between atoms: _46  and  _48
REMARK   22  A    between atoms: _48  and  _49
REMARK   23  A    between atoms: _48  and  _51
REMARK   24  A    between atoms: _51  and  _52
REMARK   25  A    between atoms: _58  and  _60
REMARK   26  A    between atoms: _60  and  _61
REMARK   27  A    between atoms: _63  and  _65
REMARK   28  A    between atoms: _65  and  _66
REMARK   29  A    between atoms: _65  and  _68
REMARK   30  A    between atoms: _68  and  _69
REMARK   31  A    between atoms: _69  and  _70
REMARK   32  A    between atoms: _70  and  _71
REMARK   33  A    between atoms: _80  and  _82
REMARK   34  A    between atoms: _82  and  _83
REMARK   35  A    between atoms: _82  and  _85
REMARK   36  A    between atoms: _88  and  _90
REMARK   37  A    between atoms: _90  and  _91
REMARK   38  A    between atoms: _90  and  _93
REMARK   39  A    between atoms: _93  and  _94
REMARK   40  A    between atoms: _94  and  _95
REMARK   41  A    between atoms: _97  and  _99
REMARK   42  A    between atoms: _99  and  _100
REMARK   43  A    between atoms: _99  and  _102
REMARK   44  A    between atoms: _102  and  _103
REMARK   45  A    between atoms: _106  and  _108
REMARK   46  A    between atoms: _108  and  _109
REMARK   47  A    between atoms: _108  and  _111
REMARK   48  A    between atoms: _111  and  _112
REMARK   49  A    between atoms: _117  and  _118
REMARK   50  A    between atoms: _120  and  _122
REMARK   51  A    between atoms: _122  and  _123
REMARK   52  A    between atoms: _126  and  _128
REMARK   53  A    between atoms: _128  and  _129
REMARK   54  A    between atoms: _128  and  _131
REMARK   55  A    between atoms: _131  and  _132
REMARK   56  A    between atoms: _132  and  _133
REMARK   57  A    between atoms: _135  and  _137
REMARK   58  A    between atoms: _137  and  _138
REMARK   59  A    between atoms: _137  and  _140
REMARK   60  A    between atoms: _140  and  _141
REMARK   61  A    between atoms: _141  and  _142
REMARK   62  A    between atoms: _142  and  _143
REMARK   63  A    between atoms: _143  and  _144
REMARK   64  A    between atoms: _148  and  _150
REMARK   65  A    between atoms: _150  and  _151
REMARK   66  A    between atoms: _150  and  _153
REMARK   67  A    between atoms: _153  and  _154
REMARK   68  A    between atoms: _157  and  _159
REMARK   69  A    between atoms: _159  and  _160
REMARK   70  A    between atoms: _159  and  _162
REMARK   71  A    between atoms: _162  and  _163
REMARK   72  A    between atoms: _166  and  _168
REMARK   73  A    between atoms: _168  and  _169
REMARK   74  A    between atoms: _168  and  _171
REMARK   75  A    between atoms: _171  and  _172
REMARK   76  A    between atoms: _175  and  _177
REMARK   77  A    between atoms: _177  and  _178
REMARK   78  A    between atoms: _177  and  _180
REMARK   79  A    between atoms: _180  and  _181
REMARK   80  A    between atoms: _181  and  _182
REMARK   81  A    between atoms: _182  and  _183
REMARK   82  A    between atoms: _183  and  _184
REMARK   83  A    between atoms: _188  and  _190
REMARK   84  A    between atoms: _190  and  _191
REMARK   85  A    between atoms: _190  and  _193
REMARK   86  A    between atoms: _196  and  _198
REMARK   87  A    between atoms: _198  and  _199
REMARK   88  A    between atoms: _198  and  _201
REMARK   89  A    between atoms: _201  and  _202
REMARK   90  A    between atoms: _205  and  _207
REMARK   91  A    between atoms: _207  and  _208
REMARK   92  A    between atoms: _207  and  _210
REMARK   93  A    between atoms: _210  and  _211
REMARK   94  A    between atoms: _211  and  _212
REMARK   95  A    between atoms: _212  and  _213
REMARK   96  A    between atoms: _213  and  _214
REMARK   97  A    between atoms: _218  and  _220
REMARK   98  A    between atoms: _220  and  _221
REMARK   99  A    between atoms: _220  and  _223
REMARK  100  A    between atoms: _223  and  _224
REMARK  101  A    between atoms: _224  and  _225
REMARK  102  A    between atoms: _230  and  _232
REMARK  103  A    between atoms: _232  and  _233
REMARK  104  A    between atoms: _232  and  _235
REMARK  105  A    between atoms: _235  and  _236
REMARK  106  A    between atoms: _239  and  _241
REMARK  107  A    between atoms: _241  and  _242
REMARK  108  A    between atoms: _241  and  _244
REMARK  109  A    between atoms: _244  and  _245
REMARK  110  A    between atoms: _250  and  _252
REMARK  111  A    between atoms: _252  and  _253
REMARK  112  A    between atoms: _252  and  _255
REMARK  113  A    between atoms: _255  and  _256
REMARK  114  A    between atoms: _259  and  _261
REMARK  115  A    between atoms: _261  and  _262
REMARK  116  A    between atoms: _261  and  _264
REMARK  117  A    between atoms: _264  and  _265
REMARK  118  A    between atoms: _268  and  _270
REMARK  119  A    between atoms: _270  and  _271
REMARK  120  A    between atoms: _270  and  _273
REMARK  121  A    between atoms: _273  and  _274
REMARK  122  A    between atoms: _274  and  _275
REMARK  123  A    between atoms: _278  and  _280
REMARK  124  A    between atoms: _280  and  _281
REMARK  125  A    between atoms: _280  and  _283
REMARK  126  A    between atoms: _283  and  _284
REMARK  127  A    between atoms: _284  and  _285
REMARK  128  A    between atoms: _285  and  _286
REMARK  129  A    between atoms: _286  and  _287
REMARK  130  A    between atoms: _291  and  _293
REMARK  131  A    between atoms: _293  and  _294
REMARK  132  A    between atoms: _293  and  _296
REMARK  133  A    between atoms: _296  and  _297
REMARK  134  A    between atoms: _300  and  _302
REMARK  135  A    between atoms: _302  and  _303
REMARK  136  A    between atoms: _302  and  _305
REMARK  137  A    between atoms: _308  and  _310
REMARK  138  A    between atoms: _310  and  _311
REMARK  139  A    between atoms: _310  and  _313
REMARK  140  A    between atoms: _313  and  _314
REMARK  141  A    between atoms: _314  and  _315
REMARK  142  A    between atoms: _315  and  _316
REMARK  143  A    between atoms: _316  and  _317
REMARK  144  A    between atoms: _321  and  _323
REMARK  145  A    between atoms: _323  and  _324
REMARK  146  A    between atoms: _323  and  _326
REMARK  147  A    between atoms: _326  and  _327
REMARK  148  A    between atoms: _330  and  _332
REMARK  149  A    between atoms: _332  and  _333
REMARK  150  A    between atoms: _332  and  _335
REMARK  151  A    between atoms: _335  and  _336
REMARK  152  A    between atoms: _336  and  _337
REMARK  153  A    between atoms: _339  and  _341
REMARK  154  A    between atoms: _341  and  _342
REMARK  155  A    between atoms: _341  and  _344
REMARK  156  A    between atoms: _344  and  _345
REMARK  157  A    between atoms: _345  and  _346
REMARK  158  A    between atoms: _348  and  _350
REMARK  159  A    between atoms: _350  and  _351
REMARK  160  A    between atoms: _350  and  _353
REMARK  161  A    between atoms: _353  and  _354
REMARK  162  A    between atoms: _354  and  _355
REMARK  163  A    between atoms: _358  and  _360
REMARK  164  A    between atoms: _360  and  _361
REMARK  165  A    between atoms: _360  and  _363
REMARK  166  A    between atoms: _363  and  _364
REMARK  167  A    between atoms: _369  and  _370
REMARK  168  A    between atoms: _372  and  _374
REMARK  169  A    between atoms: _374  and  _375
REMARK  170  A    between atoms: _374  and  _377
REMARK  171  A    between atoms: _381  and  _382
REMARK  172  A    between atoms: _387  and  _389
REMARK  173  A    between atoms: _389  and  _390
REMARK  174  A    between atoms: _392  and  _394
REMARK  175  A    between atoms: _394  and  _395
REMARK  176  A    between atoms: _397  and  _399
REMARK  177  A    between atoms: _399  and  _400
REMARK  178  A    between atoms: _399  and  _402
REMARK  179  A    between atoms: _402  and  _403
REMARK  180  A    between atoms: _403  and  _404
REMARK  181  A    between atoms: _407  and  _409
REMARK  182  A    between atoms: _409  and  _410
REMARK  183  A    between atoms: _409  and  _412
REMARK  184  A    between atoms: _412  and  _413
REMARK  185  A    between atoms: _413  and  _414
REMARK  186  A    between atoms: _416  and  _418
REMARK  187  A    between atoms: _418  and  _419
REMARK  188  A    between atoms: _418  and  _421
REMARK  189  A    between atoms: _421  and  _422
REMARK  190  A    between atoms: _428  and  _430
REMARK  191  A    between atoms: _430  and  _431
REMARK  192  A    between atoms: _430  and  _433
REMARK  193  A    between atoms: _433  and  _434
REMARK  194  A    between atoms: _439  and  _440
REMARK  195  A    between atoms: _442  and  _444
REMARK  196  A    between atoms: _444  and  _445
REMARK  197  A    between atoms: _444  and  _447
REMARK  198  A    between atoms: _447  and  _448
REMARK  199  A    between atoms: _451  and  _453
REMARK  200  A    between atoms: _453  and  _454
REMARK  201  A    between atoms: _453  and  _456
REMARK  202  A    between atoms: _456  and  _457
REMARK  203  A    between atoms: _457  and  _458
REMARK  204  A    between atoms: _458  and  _459
REMARK  205  A    between atoms: _459  and  _460
REMARK  206  A    between atoms: _465  and  _466
REMARK  207  A    between atoms: _471  and  _473
REMARK  208  A    between atoms: _473  and  _474
REMARK  209  A    between atoms: _473  and  _476
REMARK  210  A    between atoms: _476  and  _477
REMARK  211  A    between atoms: _477  and  _478
REMARK  212  A    between atoms: _481  and  _483
REMARK  213  A    between atoms: _483  and  _484
REMARK  214  A    between atoms: _483  and  _486
REMARK  215  A    between atoms: _486  and  _487
REMARK  216  A    between atoms: _492  and  _494
REMARK  217  A    between atoms: _494  and  _495
REMARK  218  A    between atoms: _494  and  _497
REMARK  219  A    between atoms: _497  and  _498
REMARK  220  A    between atoms: _501  and  _503
REMARK  221  A    between atoms: _503  and  _504
REMARK  222  A    between atoms: _503  and  _506
REMARK  223  A    between atoms: _506  and  _507
REMARK  224  A    between atoms: _510  and  _512
REMARK  225  A    between atoms: _512  and  _513
REMARK  226  A    between atoms: _512  and  _515
REMARK  227  A    between atoms: _515  and  _516
REMARK  228  A    between atoms: _519  and  _521
REMARK  229  A    between atoms: _521  and  _522
REMARK  230  A    between atoms: _521  and  _524
REMARK  231  A    between atoms: _524  and  _525
REMARK  232  A    between atoms: _525  and  _526
REMARK  233  A    between atoms: _531  and  _533
REMARK  234  A    between atoms: _533  and  _534
REMARK  235  A    between atoms: _533  and  _536
REMARK  236  A    between atoms: _539  and  _541
REMARK  237  A    between atoms: _541  and  _542
REMARK  238  A    between atoms: _541  and  _544
REMARK  239  A    between atoms: _544  and  _545
REMARK  240  A    between atoms: _548  and  _550
REMARK  241  A    between atoms: _550  and  _551
REMARK  242  A    between atoms: _550  and  _553
REMARK  243  A    between atoms: _553  and  _554
REMARK  244  A    between atoms: _557  and  _559
REMARK  245  A    between atoms: _559  and  _560
REMARK  246  A    between atoms: _559  and  _562
REMARK  247  A    between atoms: _562  and  _563
REMARK  248  A    between atoms: _569  and  _571
REMARK  249  A    between atoms: _571  and  _572
REMARK  250  A    between atoms: _574  and  _576
REMARK  251  A    between atoms: _576  and  _577
REMARK  252  A    between atoms: _576  and  _579
REMARK  253  A    between atoms: _579  and  _580
REMARK  254  A    between atoms: _586  and  _588
REMARK  255  A    between atoms: _588  and  _589
REMARK  256  A    between atoms: _592  and  _594
REMARK  257  A    between atoms: _594  and  _595
REMARK  258  A    between atoms: _594  and  _597
REMARK  259  A    between atoms: _599  and  _601
REMARK  260  A    between atoms: _601  and  _602
REMARK  261  A    between atoms: _604  and  _606
REMARK  262  A    between atoms: _606  and  _607
REMARK  263  A    between atoms: _606  and  _609
REMARK  264  A    between atoms: _609  and  _610
REMARK  265  A    between atoms: _616  and  _618
REMARK  266  A    between atoms: _618  and  _619
REMARK  267  A    between atoms: _618  and  _621
REMARK  268  A    between atoms: _621  and  _622
REMARK  269  A    between atoms: _627  and  _628
REMARK                            x       y       z     vdW  Elec       q    Type
REMARK                         _______ _______ _______ _____ _____    ______ ____
ROOT
ATOM      1  O   HOH     1       3.406  26.088  30.616  0.00  0.00    +0.000 OA
ENDROOT
TORSDOF 0
REMARK  Name = ../refined-set-2016/1xh4/1xh4_pocket.pdb
REMARK  269 active torsions:
REMARK  status: ('A' for Active; 'I' for Inactive)
REMARK    1  A    between atoms: _1  and  _3
REMARK    2  A    between atoms: _3  and  _4
REMARK    3  A    between atoms: _3  and  _6
REMARK    4  A    between atoms: _6  and  _7
REMARK    5  A    between atoms: _10  and  _12
REMARK    6  A    between atoms: _12  and  _13
REMARK    7  A    between atoms: _12  and  _15
REMARK    8  A    between atoms: _15  and  _16
REMARK    9  A    between atoms: _19  and  _21
REMARK   10  A    between atoms: _21  and  _22
REMARK   11  A    between atoms: _24  and  _26
REMARK   12  A    between atoms: _26  and  _27
REMARK   13  A    between atoms: _26  and  _29
REMARK   14  A    between atoms: _29  and  _30
REMARK   15  A    between atoms: _33  and  _35
REMARK   16  A    between atoms: _35  and  _36
REMARK   17  A    between atoms: _38  and  _40
REMARK   18  A    between atoms: _40  and  _41
REMARK   19  A    between atoms: _40  and  _43
REMARK   20  A    between atoms: _43  and  _44
REMARK   21  A    between atoms: _46  and  _48
REMARK   22  A    between atoms: _48  and  _49
REMARK   23  A    between atoms: _48  and  _51
REMARK   24  A    between atoms: _51  and  _52
REMARK   25  A    between atoms: _58  and  _60
REMARK   26  A    between atoms: _60  and  _61
REMARK   27  A    between atoms: _63  and  _65
REMARK   28  A    between atoms: _65  and  _66
REMARK   29  A    between atoms: _65  and  _68
REMARK   30  A    between atoms: _68  and  _69
REMARK   31  A    between atoms: _69  and  _70
REMARK   32  A    between atoms: _70  and  _71
REMARK   33  A    between atoms: _80  and  _82
REMARK   34  A    between atoms: _82  and  _83
REMARK   35  A    between atoms: _82  and  _85
REMARK   36  A    between atoms: _88  and  _90
REMARK   37  A    between atoms: _90  and  _91
REMARK   38  A    between atoms: _90  and  _93
REMARK   39  A    between atoms: _93  and  _94
REMARK   40  A    between atoms: _94  and  _95
REMARK   41  A    between atoms: _97  and  _99
REMARK   42  A    between atoms: _99  and  _100
REMARK   43  A    between atoms: _99  and  _102
REMARK   44  A    between atoms: _102  and  _103
REMARK   45  A    between atoms: _106  and  _108
REMARK   46  A    between atoms: _108  and  _109
REMARK   47  A    between atoms: _108  and  _111
REMARK   48  A    between atoms: _111  and  _112
REMARK   49  A    between atoms: _117  and  _118
REMARK   50  A    between atoms: _120  and  _122
REMARK   51  A    between atoms: _122  and  _123
REMARK   52  A    between atoms: _126  and  _128
REMARK   53  A    between atoms: _128  and  _129
REMARK   54  A    between atoms: _128  and  _131
REMARK   55  A    between atoms: _131  and  _132
REMARK   56  A    between atoms: _132  and  _133
REMARK   57  A    between atoms: _135  and  _137
REMARK   58  A    between atoms: _137  and  _138
REMARK   59  A    between atoms: _137  and  _140
REMARK   60  A    between atoms: _140  and  _141
REMARK   61  A    between atoms: _141  and  _142
REMARK   62  A    between atoms: _142  and  _143
REMARK   63  A    between atoms: _143  and  _144
REMARK   64  A    between atoms: _148  and  _150
REMARK   65  A    between atoms: _150  and  _151
REMARK   66  A    between atoms: _150  and  _153
REMARK   67  A    between atoms: _153  and  _154
REMARK   68  A    between atoms: _157  and  _159
REMARK   69  A    between atoms: _159  and  _160
REMARK   70  A    between atoms: _159  and  _162
REMARK   71  A    between atoms: _162  and  _163
REMARK   72  A    between atoms: _166  and  _168
REMARK   73  A    between atoms: _168  and  _169
REMARK   74  A    between atoms: _168  and  _171
REMARK   75  A    between atoms: _171  and  _172
REMARK   76  A    between atoms: _175  and  _177
REMARK   77  A    between atoms: _177  and  _178
REMARK   78  A    between atoms: _177  and  _180
REMARK   79  A    between atoms: _180  and  _181
REMARK   80  A    between atoms: _181  and  _182
REMARK   81  A    between atoms: _182  and  _183
REMARK   82  A    between atoms: _183  and  _184
REMARK   83  A    between atoms: _188  and  _190
REMARK   84  A    between atoms: _190  and  _191
REMARK   85  A    between atoms: _190  and  _193
REMARK   86  A    between atoms: _196  and  _198
REMARK   87  A    between atoms: _198  and  _199
REMARK   88  A    between atoms: _198  and  _201
REMARK   89  A    between atoms: _201  and  _202
REMARK   90  A    between atoms: _205  and  _207
REMARK   91  A    between atoms: _207  and  _208
REMARK   92  A    between atoms: _207  and  _210
REMARK   93  A    between atoms: _210  and  _211
REMARK   94  A    between atoms: _211  and  _212
REMARK   95  A    between atoms: _212  and  _213
REMARK   96  A    between atoms: _213  and  _214
REMARK   97  A    between atoms: _218  and  _220
REMARK   98  A    between atoms: _220  and  _221
REMARK   99  A    between atoms: _220  and  _223
REMARK  100  A    between atoms: _223  and  _224
REMARK  101  A    between atoms: _224  and  _225
REMARK  102  A    between atoms: _230  and  _232
REMARK  103  A    between atoms: _232  and  _233
REMARK  104  A    between atoms: _232  and  _235
REMARK  105  A    between atoms: _235  and  _236
REMARK  106  A    between atoms: _239  and  _241
REMARK  107  A    between atoms: _241  and  _242
REMARK  108  A    between atoms: _241  and  _244
REMARK  109  A    between atoms: _244  and  _245
REMARK  110  A    between atoms: _250  and  _252
REMARK  111  A    between atoms: _252  and  _253
REMARK  112  A    between atoms: _252  and  _255
REMARK  113  A    between atoms: _255  and  _256
REMARK  114  A    between atoms: _259  and  _261
REMARK  115  A    between atoms: _261  and  _262
REMARK  116  A    between atoms: _261  and  _264
REMARK  117  A    between atoms: _264  and  _265
REMARK  118  A    between atoms: _268  and  _270
REMARK  119  A    between atoms: _270  and  _271
REMARK  120  A    between atoms: _270  and  _273
REMARK  121  A    between atoms: _273  and  _274
REMARK  122  A    between atoms: _274  and  _275
REMARK  123  A    between atoms: _278  and  _280
REMARK  124  A    between atoms: _280  and  _281
REMARK  125  A    between atoms: _280  and  _283
REMARK  126  A    between atoms: _283  and  _284
REMARK  127  A    between atoms: _284  and  _285
REMARK  128  A    between atoms: _285  and  _286
REMARK  129  A    between atoms: _286  and  _287
REMARK  130  A    between atoms: _291  and  _293
REMARK  131  A    between atoms: _293  and  _294
REMARK  132  A    between atoms: _293  and  _296
REMARK  133  A    between atoms: _296  and  _297
REMARK  134  A    between atoms: _300  and  _302
REMARK  135  A    between atoms: _302  and  _303
REMARK  136  A    between atoms: _302  and  _305
REMARK  137  A    between atoms: _308  and  _310
REMARK  138  A    between atoms: _310  and  _311
REMARK  139  A    between atoms: _310  and  _313
REMARK  140  A    between atoms: _313  and  _314
REMARK  141  A    between atoms: _314  and  _315
REMARK  142  A    between atoms: _315  and  _316
REMARK  143  A    between atoms: _316  and  _317
REMARK  144  A    between atoms: _321  and  _323
REMARK  145  A    between atoms: _323  and  _324
REMARK  146  A    between atoms: _323  and  _326
REMARK  147  A    between atoms: _326  and  _327
REMARK  148  A    between atoms: _330  and  _332
REMARK  149  A    between atoms: _332  and  _333
REMARK  150  A    between atoms: _332  and  _335
REMARK  151  A    between atoms: _335  and  _336
REMARK  152  A    between atoms: _336  and  _337
REMARK  153  A    between atoms: _339  and  _341
REMARK  154  A    between atoms: _341  and  _342
REMARK  155  A    between atoms: _341  and  _344
REMARK  156  A    between atoms: _344  and  _345
REMARK  157  A    between atoms: _345  and  _346
REMARK  158  A    between atoms: _348  and  _350
REMARK  159  A    between atoms: _350  and  _351
REMARK  160  A    between atoms: _350  and  _353
REMARK  161  A    between atoms: _353  and  _354
REMARK  162  A    between atoms: _354  and  _355
REMARK  163  A    between atoms: _358  and  _360
REMARK  164  A    between atoms: _360  and  _361
REMARK  165  A    between atoms: _360  and  _363
REMARK  166  A    between atoms: _363  and  _364
REMARK  167  A    between atoms: _369  and  _370
REMARK  168  A    between atoms: _372  and  _374
REMARK  169  A    between atoms: _374  and  _375
REMARK  170  A    between atoms: _374  and  _377
REMARK  171  A    between atoms: _381  and  _382
REMARK  172  A    between atoms: _387  and  _389
REMARK  173  A    between atoms: _389  and  _390
REMARK  174  A    between atoms: _392  and  _394
REMARK  175  A    between atoms: _394  and  _395
REMARK  176  A    between atoms: _397  and  _399
REMARK  177  A    between atoms: _399  and  _400
REMARK  178  A    between atoms: _399  and  _402
REMARK  179  A    between atoms: _402  and  _403
REMARK  180  A    between atoms: _403  and  _404
REMARK  181  A    between atoms: _407  and  _409
REMARK  182  A    between atoms: _409  and  _410
REMARK  183  A    between atoms: _409  and  _412
REMARK  184  A    between atoms: _412  and  _413
REMARK  185  A    between atoms: _413  and  _414
REMARK  186  A    between atoms: _416  and  _418
REMARK  187  A    between atoms: _418  and  _419
REMARK  188  A    between atoms: _418  and  _421
REMARK  189  A    between atoms: _421  and  _422
REMARK  190  A    between atoms: _428  and  _430
REMARK  191  A    between atoms: _430  and  _431
REMARK  192  A    between atoms: _430  and  _433
REMARK  193  A    between atoms: _433  and  _434
REMARK  194  A    between atoms: _439  and  _440
REMARK  195  A    between atoms: _442  and  _444
REMARK  196  A    between atoms: _444  and  _445
REMARK  197  A    between atoms: _444  and  _447
REMARK  198  A    between atoms: _447  and  _448
REMARK  199  A    between atoms: _451  and  _453
REMARK  200  A    between atoms: _453  and  _454
REMARK  201  A    between atoms: _453  and  _456
REMARK  202  A    between atoms: _456  and  _457
REMARK  203  A    between atoms: _457  and  _458
REMARK  204  A    between atoms: _458  and  _459
REMARK  205  A    between atoms: _459  and  _460
REMARK  206  A    between atoms: _465  and  _466
REMARK  207  A    between atoms: _471  and  _473
REMARK  208  A    between atoms: _473  and  _474
REMARK  209  A    between atoms: _473  and  _476
REMARK  210  A    between atoms: _476  and  _477
REMARK  211  A    between atoms: _477  and  _478
REMARK  212  A    between atoms: _481  and  _483
REMARK  213  A    between atoms: _483  and  _484
REMARK  214  A    between atoms: _483  and  _486
REMARK  215  A    between atoms: _486  and  _487
REMARK  216  A    between atoms: _492  and  _494
REMARK  217  A    between atoms: _494  and  _495
REMARK  218  A    between atoms: _494  and  _497
REMARK  219  A    between atoms: _497  and  _498
REMARK  220  A    between atoms: _501  and  _503
REMARK  221  A    between atoms: _503  and  _504
REMARK  222  A    between atoms: _503  and  _506
REMARK  223  A    between atoms: _506  and  _507
REMARK  224  A    between atoms: _510  and  _512
REMARK  225  A    between atoms: _512  and  _513
REMARK  226  A    between atoms: _512  and  _515
REMARK  227  A    between atoms: _515  and  _516
REMARK  228  A    between atoms: _519  and  _521
REMARK  229  A    between atoms: _521  and  _522
REMARK  230  A    between atoms: _521  and  _524
REMARK  231  A    between atoms: _524  and  _525
REMARK  232  A    between atoms: _525  and  _526
REMARK  233  A    between atoms: _531  and  _533
REMARK  234  A    between atoms: _533  and  _534
REMARK  235  A    between atoms: _533  and  _536
REMARK  236  A    between atoms: _539  and  _541
REMARK  237  A    between atoms: _541  and  _542
REMARK  238  A    between atoms: _541  and  _544
REMARK  239  A    between atoms: _544  and  _545
REMARK  240  A    between atoms: _548  and  _550
REMARK  241  A    between atoms: _550  and  _551
REMARK  242  A    between atoms: _550  and  _553
REMARK  243  A    between atoms: _553  and  _554
REMARK  244  A    between atoms: _557  and  _559
REMARK  245  A    between atoms: _559  and  _560
REMARK  246  A    between atoms: _559  and  _562
REMARK  247  A    between atoms: _562  and  _563
REMARK  248  A    between atoms: _569  and  _571
REMARK  249  A    between atoms: _571  and  _572
REMARK  250  A    between atoms: _574  and  _576
REMARK  251  A    between atoms: _576  and  _577
REMARK  252  A    between atoms: _576  and  _579
REMARK  253  A    between atoms: _579  and  _580
REMARK  254  A    between atoms: _586  and  _588
REMARK  255  A    between atoms: _588  and  _589
REMARK  256  A    between atoms: _592  and  _594
REMARK  257  A    between atoms: _594  and  _595
REMARK  258  A    between atoms: _594  and  _597
REMARK  259  A    between atoms: _599  and  _601
REMARK  260  A    between atoms: _601  and  _602
REMARK  261  A    between atoms: _604  and  _606
REMARK  262  A    between atoms: _606  and  _607
REMARK  263  A    between atoms: _606  and  _609
REMARK  264  A    between atoms: _609  and  _610
REMARK  265  A    between atoms: _616  and  _618
REMARK  266  A    between atoms: _618  and  _619
REMARK  267  A    between atoms: _618  and  _621
REMARK  268  A    between atoms: _621  and  _622
REMARK  269  A    between atoms: _627  and  _628
REMARK                            x       y       z     vdW  Elec       q    Type
REMARK                         _______ _______ _______ _____ _____    ______ ____
ROOT
ATOM      1  O   HOH     1       5.549  15.562  29.670  0.00  0.00    +0.000 OA
ENDROOT
TORSDOF 0
REMARK  Name = ../refined-set-2016/1xh4/1xh4_pocket.pdb
REMARK  269 active torsions:
REMARK  status: ('A' for Active; 'I' for Inactive)
REMARK    1  A    between atoms: _1  and  _3
REMARK    2  A    between atoms: _3  and  _4
REMARK    3  A    between atoms: _3  and  _6
REMARK    4  A    between atoms: _6  and  _7
REMARK    5  A    between atoms: _10  and  _12
REMARK    6  A    between atoms: _12  and  _13
REMARK    7  A    between atoms: _12  and  _15
REMARK    8  A    between atoms: _15  and  _16
REMARK    9  A    between atoms: _19  and  _21
REMARK   10  A    between atoms: _21  and  _22
REMARK   11  A    between atoms: _24  and  _26
REMARK   12  A    between atoms: _26  and  _27
REMARK   13  A    between atoms: _26  and  _29
REMARK   14  A    between atoms: _29  and  _30
REMARK   15  A    between atoms: _33  and  _35
REMARK   16  A    between atoms: _35  and  _36
REMARK   17  A    between atoms: _38  and  _40
REMARK   18  A    between atoms: _40  and  _41
REMARK   19  A    between atoms: _40  and  _43
REMARK   20  A    between atoms: _43  and  _44
REMARK   21  A    between atoms: _46  and  _48
REMARK   22  A    between atoms: _48  and  _49
REMARK   23  A    between atoms: _48  and  _51
REMARK   24  A    between atoms: _51  and  _52
REMARK   25  A    between atoms: _58  and  _60
REMARK   26  A    between atoms: _60  and  _61
REMARK   27  A    between atoms: _63  and  _65
REMARK   28  A    between atoms: _65  and  _66
REMARK   29  A    between atoms: _65  and  _68
REMARK   30  A    between atoms: _68  and  _69
REMARK   31  A    between atoms: _69  and  _70
REMARK   32  A    between atoms: _70  and  _71
REMARK   33  A    between atoms: _80  and  _82
REMARK   34  A    between atoms: _82  and  _83
REMARK   35  A    between atoms: _82  and  _85
REMARK   36  A    between atoms: _88  and  _90
REMARK   37  A    between atoms: _90  and  _91
REMARK   38  A    between atoms: _90  and  _93
REMARK   39  A    between atoms: _93  and  _94
REMARK   40  A    between atoms: _94  and  _95
REMARK   41  A    between atoms: _97  and  _99
REMARK   42  A    between atoms: _99  and  _100
REMARK   43  A    between atoms: _99  and  _102
REMARK   44  A    between atoms: _102  and  _103
REMARK   45  A    between atoms: _106  and  _108
REMARK   46  A    between atoms: _108  and  _109
REMARK   47  A    between atoms: _108  and  _111
REMARK   48  A    between atoms: _111  and  _112
REMARK   49  A    between atoms: _117  and  _118
REMARK   50  A    between atoms: _120  and  _122
REMARK   51  A    between atoms: _122  and  _123
REMARK   52  A    between atoms: _126  and  _128
REMARK   53  A    between atoms: _128  and  _129
REMARK   54  A    between atoms: _128  and  _131
REMARK   55  A    between atoms: _131  and  _132
REMARK   56  A    between atoms: _132  and  _133
REMARK   57  A    between atoms: _135  and  _137
REMARK   58  A    between atoms: _137  and  _138
REMARK   59  A    between atoms: _137  and  _140
REMARK   60  A    between atoms: _140  and  _141
REMARK   61  A    between atoms: _141  and  _142
REMARK   62  A    between atoms: _142  and  _143
REMARK   63  A    between atoms: _143  and  _144
REMARK   64  A    between atoms: _148  and  _150
REMARK   65  A    between atoms: _150  and  _151
REMARK   66  A    between atoms: _150  and  _153
REMARK   67  A    between atoms: _153  and  _154
REMARK   68  A    between atoms: _157  and  _159
REMARK   69  A    between atoms: _159  and  _160
REMARK   70  A    between atoms: _159  and  _162
REMARK   71  A    between atoms: _162  and  _163
REMARK   72  A    between atoms: _166  and  _168
REMARK   73  A    between atoms: _168  and  _169
REMARK   74  A    between atoms: _168  and  _171
REMARK   75  A    between atoms: _171  and  _172
REMARK   76  A    between atoms: _175  and  _177
REMARK   77  A    between atoms: _177  and  _178
REMARK   78  A    between atoms: _177  and  _180
REMARK   79  A    between atoms: _180  and  _181
REMARK   80  A    between atoms: _181  and  _182
REMARK   81  A    between atoms: _182  and  _183
REMARK   82  A    between atoms: _183  and  _184
REMARK   83  A    between atoms: _188  and  _190
REMARK   84  A    between atoms: _190  and  _191
REMARK   85  A    between atoms: _190  and  _193
REMARK   86  A    between atoms: _196  and  _198
REMARK   87  A    between atoms: _198  and  _199
REMARK   88  A    between atoms: _198  and  _201
REMARK   89  A    between atoms: _201  and  _202
REMARK   90  A    between atoms: _205  and  _207
REMARK   91  A    between atoms: _207  and  _208
REMARK   92  A    between atoms: _207  and  _210
REMARK   93  A    between atoms: _210  and  _211
REMARK   94  A    between atoms: _211  and  _212
REMARK   95  A    between atoms: _212  and  _213
REMARK   96  A    between atoms: _213  and  _214
REMARK   97  A    between atoms: _218  and  _220
REMARK   98  A    between atoms: _220  and  _221
REMARK   99  A    between atoms: _220  and  _223
REMARK  100  A    between atoms: _223  and  _224
REMARK  101  A    between atoms: _224  and  _225
REMARK  102  A    between atoms: _230  and  _232
REMARK  103  A    between atoms: _232  and  _233
REMARK  104  A    between atoms: _232  and  _235
REMARK  105  A    between atoms: _235  and  _236
REMARK  106  A    between atoms: _239  and  _241
REMARK  107  A    between atoms: _241  and  _242
REMARK  108  A    between atoms: _241  and  _244
REMARK  109  A    between atoms: _244  and  _245
REMARK  110  A    between atoms: _250  and  _252
REMARK  111  A    between atoms: _252  and  _253
REMARK  112  A    between atoms: _252  and  _255
REMARK  113  A    between atoms: _255  and  _256
REMARK  114  A    between atoms: _259  and  _261
REMARK  115  A    between atoms: _261  and  _262
REMARK  116  A    between atoms: _261  and  _264
REMARK  117  A    between atoms: _264  and  _265
REMARK  118  A    between atoms: _268  and  _270
REMARK  119  A    between atoms: _270  and  _271
REMARK  120  A    between atoms: _270  and  _273
REMARK  121  A    between atoms: _273  and  _274
REMARK  122  A    between atoms: _274  and  _275
REMARK  123  A    between atoms: _278  and  _280
REMARK  124  A    between atoms: _280  and  _281
REMARK  125  A    between atoms: _280  and  _283
REMARK  126  A    between atoms: _283  and  _284
REMARK  127  A    between atoms: _284  and  _285
REMARK  128  A    between atoms: _285  and  _286
REMARK  129  A    between atoms: _286  and  _287
REMARK  130  A    between atoms: _291  and  _293
REMARK  131  A    between atoms: _293  and  _294
REMARK  132  A    between atoms: _293  and  _296
REMARK  133  A    between atoms: _296  and  _297
REMARK  134  A    between atoms: _300  and  _302
REMARK  135  A    between atoms: _302  and  _303
REMARK  136  A    between atoms: _302  and  _305
REMARK  137  A    between atoms: _308  and  _310
REMARK  138  A    between atoms: _310  and  _311
REMARK  139  A    between atoms: _310  and  _313
REMARK  140  A    between atoms: _313  and  _314
REMARK  141  A    between atoms: _314  and  _315
REMARK  142  A    between atoms: _315  and  _316
REMARK  143  A    between atoms: _316  and  _317
REMARK  144  A    between atoms: _321  and  _323
REMARK  145  A    between atoms: _323  and  _324
REMARK  146  A    between atoms: _323  and  _326
REMARK  147  A    between atoms: _326  and  _327
REMARK  148  A    between atoms: _330  and  _332
REMARK  149  A    between atoms: _332  and  _333
REMARK  150  A    between atoms: _332  and  _335
REMARK  151  A    between atoms: _335  and  _336
REMARK  152  A    between atoms: _336  and  _337
REMARK  153  A    between atoms: _339  and  _341
REMARK  154  A    between atoms: _341  and  _342
REMARK  155  A    between atoms: _341  and  _344
REMARK  156  A    between atoms: _344  and  _345
REMARK  157  A    between atoms: _345  and  _346
REMARK  158  A    between atoms: _348  and  _350
REMARK  159  A    between atoms: _350  and  _351
REMARK  160  A    between atoms: _350  and  _353
REMARK  161  A    between atoms: _353  and  _354
REMARK  162  A    between atoms: _354  and  _355
REMARK  163  A    between atoms: _358  and  _360
REMARK  164  A    between atoms: _360  and  _361
REMARK  165  A    between atoms: _360  and  _363
REMARK  166  A    between atoms: _363  and  _364
REMARK  167  A    between atoms: _369  and  _370
REMARK  168  A    between atoms: _372  and  _374
REMARK  169  A    between atoms: _374  and  _375
REMARK  170  A    between atoms: _374  and  _377
REMARK  171  A    between atoms: _381  and  _382
REMARK  172  A    between atoms: _387  and  _389
REMARK  173  A    between atoms: _389  and  _390
REMARK  174  A    between atoms: _392  and  _394
REMARK  175  A    between atoms: _394  and  _395
REMARK  176  A    between atoms: _397  and  _399
REMARK  177  A    between atoms: _399  and  _400
REMARK  178  A    between atoms: _399  and  _402
REMARK  179  A    between atoms: _402  and  _403
REMARK  180  A    between atoms: _403  and  _404
REMARK  181  A    between atoms: _407  and  _409
REMARK  182  A    between atoms: _409  and  _410
REMARK  183  A    between atoms: _409  and  _412
REMARK  184  A    between atoms: _412  and  _413
REMARK  185  A    between atoms: _413  and  _414
REMARK  186  A    between atoms: _416  and  _418
REMARK  187  A    between atoms: _418  and  _419
REMARK  188  A    between atoms: _418  and  _421
REMARK  189  A    between atoms: _421  and  _422
REMARK  190  A    between atoms: _428  and  _430
REMARK  191  A    between atoms: _430  and  _431
REMARK  192  A    between atoms: _430  and  _433
REMARK  193  A    between atoms: _433  and  _434
REMARK  194  A    between atoms: _439  and  _440
REMARK  195  A    between atoms: _442  and  _444
REMARK  196  A    between atoms: _444  and  _445
REMARK  197  A    between atoms: _444  and  _447
REMARK  198  A    between atoms: _447  and  _448
REMARK  199  A    between atoms: _451  and  _453
REMARK  200  A    between atoms: _453  and  _454
REMARK  201  A    between atoms: _453  and  _456
REMARK  202  A    between atoms: _456  and  _457
REMARK  203  A    between atoms: _457  and  _458
REMARK  204  A    between atoms: _458  and  _459
REMARK  205  A    between atoms: _459  and  _460
REMARK  206  A    between atoms: _465  and  _466
REMARK  207  A    between atoms: _471  and  _473
REMARK  208  A    between atoms: _473  and  _474
REMARK  209  A    between atoms: _473  and  _476
REMARK  210  A    between atoms: _476  and  _477
REMARK  211  A    between atoms: _477  and  _478
REMARK  212  A    between atoms: _481  and  _483
REMARK  213  A    between atoms: _483  and  _484
REMARK  214  A    between atoms: _483  and  _486
REMARK  215  A    between atoms: _486  and  _487
REMARK  216  A    between atoms: _492  and  _494
REMARK  217  A    between atoms: _494  and  _495
REMARK  218  A    between atoms: _494  and  _497
REMARK  219  A    between atoms: _497  and  _498
REMARK  220  A    between atoms: _501  and  _503
REMARK  221  A    between atoms: _503  and  _504
REMARK  222  A    between atoms: _503  and  _506
REMARK  223  A    between atoms: _506  and  _507
REMARK  224  A    between atoms: _510  and  _512
REMARK  225  A    between atoms: _512  and  _513
REMARK  226  A    between atoms: _512  and  _515
REMARK  227  A    between atoms: _515  and  _516
REMARK  228  A    between atoms: _519  and  _521
REMARK  229  A    between atoms: _521  and  _522
REMARK  230  A    between atoms: _521  and  _524
REMARK  231  A    between atoms: _524  and  _525
REMARK  232  A    between atoms: _525  and  _526
REMARK  233  A    between atoms: _531  and  _533
REMARK  234  A    between atoms: _533  and  _534
REMARK  235  A    between atoms: _533  and  _536
REMARK  236  A    between atoms: _539  and  _541
REMARK  237  A    between atoms: _541  and  _542
REMARK  238  A    between atoms: _541  and  _544
REMARK  239  A    between atoms: _544  and  _545
REMARK  240  A    between atoms: _548  and  _550
REMARK  241  A    between atoms: _550  and  _551
REMARK  242  A    between atoms: _550  and  _553
REMARK  243  A    between atoms: _553  and  _554
REMARK  244  A    between atoms: _557  and  _559
REMARK  245  A    between atoms: _559  and  _560
REMARK  246  A    between atoms: _559  and  _562
REMARK  247  A    between atoms: _562  and  _563
REMARK  248  A    between atoms: _569  and  _571
REMARK  249  A    between atoms: _571  and  _572
REMARK  250  A    between atoms: _574  and  _576
REMARK  251  A    between atoms: _576  and  _577
REMARK  252  A    between atoms: _576  and  _579
REMARK  253  A    between atoms: _579  and  _580
REMARK  254  A    between atoms: _586  and  _588
REMARK  255  A    between atoms: _588  and  _589
REMARK  256  A    between atoms: _592  and  _594
REMARK  257  A    between atoms: _594  and  _595
REMARK  258  A    between atoms: _594  and  _597
REMARK  259  A    between atoms: _599  and  _601
REMARK  260  A    between atoms: _601  and  _602
REMARK  261  A    between atoms: _604  and  _606
REMARK  262  A    between atoms: _606  and  _607
REMARK  263  A    between atoms: _606  and  _609
REMARK  264  A    between atoms: _609  and  _610
REMARK  265  A    between atoms: _616  and  _618
REMARK  266  A    between atoms: _618  and  _619
REMARK  267  A    between atoms: _618  and  _621
REMARK  268  A    between atoms: _621  and  _622
REMARK  269  A    between atoms: _627  and  _628
REMARK                            x       y       z     vdW  Elec       q    Type
REMARK                         _______ _______ _______ _____ _____    ______ ____
ROOT
ATOM      1  O   HOH     1      -5.700  15.392  37.945  0.00  0.00    +0.000 OA
ENDROOT
TORSDOF 0
REMARK  Name = ../refined-set-2016/1xh4/1xh4_pocket.pdb
REMARK  269 active torsions:
REMARK  status: ('A' for Active; 'I' for Inactive)
REMARK    1  A    between atoms: _1  and  _3
REMARK    2  A    between atoms: _3  and  _4
REMARK    3  A    between atoms: _3  and  _6
REMARK    4  A    between atoms: _6  and  _7
REMARK    5  A    between atoms: _10  and  _12
REMARK    6  A    between atoms: _12  and  _13
REMARK    7  A    between atoms: _12  and  _15
REMARK    8  A    between atoms: _15  and  _16
REMARK    9  A    between atoms: _19  and  _21
REMARK   10  A    between atoms: _21  and  _22
REMARK   11  A    between atoms: _24  and  _26
REMARK   12  A    between atoms: _26  and  _27
REMARK   13  A    between atoms: _26  and  _29
REMARK   14  A    between atoms: _29  and  _30
REMARK   15  A    between atoms: _33  and  _35
REMARK   16  A    between atoms: _35  and  _36
REMARK   17  A    between atoms: _38  and  _40
REMARK   18  A    between atoms: _40  and  _41
REMARK   19  A    between atoms: _40  and  _43
REMARK   20  A    between atoms: _43  and  _44
REMARK   21  A    between atoms: _46  and  _48
REMARK   22  A    between atoms: _48  and  _49
REMARK   23  A    between atoms: _48  and  _51
REMARK   24  A    between atoms: _51  and  _52
REMARK   25  A    between atoms: _58  and  _60
REMARK   26  A    between atoms: _60  and  _61
REMARK   27  A    between atoms: _63  and  _65
REMARK   28  A    between atoms: _65  and  _66
REMARK   29  A    between atoms: _65  and  _68
REMARK   30  A    between atoms: _68  and  _69
REMARK   31  A    between atoms: _69  and  _70
REMARK   32  A    between atoms: _70  and  _71
REMARK   33  A    between atoms: _80  and  _82
REMARK   34  A    between atoms: _82  and  _83
REMARK   35  A    between atoms: _82  and  _85
REMARK   36  A    between atoms: _88  and  _90
REMARK   37  A    between atoms: _90  and  _91
REMARK   38  A    between atoms: _90  and  _93
REMARK   39  A    between atoms: _93  and  _94
REMARK   40  A    between atoms: _94  and  _95
REMARK   41  A    between atoms: _97  and  _99
REMARK   42  A    between atoms: _99  and  _100
REMARK   43  A    between atoms: _99  and  _102
REMARK   44  A    between atoms: _102  and  _103
REMARK   45  A    between atoms: _106  and  _108
REMARK   46  A    between atoms: _108  and  _109
REMARK   47  A    between atoms: _108  and  _111
REMARK   48  A    between atoms: _111  and  _112
REMARK   49  A    between atoms: _117  and  _118
REMARK   50  A    between atoms: _120  and  _122
REMARK   51  A    between atoms: _122  and  _123
REMARK   52  A    between atoms: _126  and  _128
REMARK   53  A    between atoms: _128  and  _129
REMARK   54  A    between atoms: _128  and  _131
REMARK   55  A    between atoms: _131  and  _132
REMARK   56  A    between atoms: _132  and  _133
REMARK   57  A    between atoms: _135  and  _137
REMARK   58  A    between atoms: _137  and  _138
REMARK   59  A    between atoms: _137  and  _140
REMARK   60  A    between atoms: _140  and  _141
REMARK   61  A    between atoms: _141  and  _142
REMARK   62  A    between atoms: _142  and  _143
REMARK   63  A    between atoms: _143  and  _144
REMARK   64  A    between atoms: _148  and  _150
REMARK   65  A    between atoms: _150  and  _151
REMARK   66  A    between atoms: _150  and  _153
REMARK   67  A    between atoms: _153  and  _154
REMARK   68  A    between atoms: _157  and  _159
REMARK   69  A    between atoms: _159  and  _160
REMARK   70  A    between atoms: _159  and  _162
REMARK   71  A    between atoms: _162  and  _163
REMARK   72  A    between atoms: _166  and  _168
REMARK   73  A    between atoms: _168  and  _169
REMARK   74  A    between atoms: _168  and  _171
REMARK   75  A    between atoms: _171  and  _172
REMARK   76  A    between atoms: _175  and  _177
REMARK   77  A    between atoms: _177  and  _178
REMARK   78  A    between atoms: _177  and  _180
REMARK   79  A    between atoms: _180  and  _181
REMARK   80  A    between atoms: _181  and  _182
REMARK   81  A    between atoms: _182  and  _183
REMARK   82  A    between atoms: _183  and  _184
REMARK   83  A    between atoms: _188  and  _190
REMARK   84  A    between atoms: _190  and  _191
REMARK   85  A    between atoms: _190  and  _193
REMARK   86  A    between atoms: _196  and  _198
REMARK   87  A    between atoms: _198  and  _199
REMARK   88  A    between atoms: _198  and  _201
REMARK   89  A    between atoms: _201  and  _202
REMARK   90  A    between atoms: _205  and  _207
REMARK   91  A    between atoms: _207  and  _208
REMARK   92  A    between atoms: _207  and  _210
REMARK   93  A    between atoms: _210  and  _211
REMARK   94  A    between atoms: _211  and  _212
REMARK   95  A    between atoms: _212  and  _213
REMARK   96  A    between atoms: _213  and  _214
REMARK   97  A    between atoms: _218  and  _220
REMARK   98  A    between atoms: _220  and  _221
REMARK   99  A    between atoms: _220  and  _223
REMARK  100  A    between atoms: _223  and  _224
REMARK  101  A    between atoms: _224  and  _225
REMARK  102  A    between atoms: _230  and  _232
REMARK  103  A    between atoms: _232  and  _233
REMARK  104  A    between atoms: _232  and  _235
REMARK  105  A    between atoms: _235  and  _236
REMARK  106  A    between atoms: _239  and  _241
REMARK  107  A    between atoms: _241  and  _242
REMARK  108  A    between atoms: _241  and  _244
REMARK  109  A    between atoms: _244  and  _245
REMARK  110  A    between atoms: _250  and  _252
REMARK  111  A    between atoms: _252  and  _253
REMARK  112  A    between atoms: _252  and  _255
REMARK  113  A    between atoms: _255  and  _256
REMARK  114  A    between atoms: _259  and  _261
REMARK  115  A    between atoms: _261  and  _262
REMARK  116  A    between atoms: _261  and  _264
REMARK  117  A    between atoms: _264  and  _265
REMARK  118  A    between atoms: _268  and  _270
REMARK  119  A    between atoms: _270  and  _271
REMARK  120  A    between atoms: _270  and  _273
REMARK  121  A    between atoms: _273  and  _274
REMARK  122  A    between atoms: _274  and  _275
REMARK  123  A    between atoms: _278  and  _280
REMARK  124  A    between atoms: _280  and  _281
REMARK  125  A    between atoms: _280  and  _283
REMARK  126  A    between atoms: _283  and  _284
REMARK  127  A    between atoms: _284  and  _285
REMARK  128  A    between atoms: _285  and  _286
REMARK  129  A    between atoms: _286  and  _287
REMARK  130  A    between atoms: _291  and  _293
REMARK  131  A    between atoms: _293  and  _294
REMARK  132  A    between atoms: _293  and  _296
REMARK  133  A    between atoms: _296  and  _297
REMARK  134  A    between atoms: _300  and  _302
REMARK  135  A    between atoms: _302  and  _303
REMARK  136  A    between atoms: _302  and  _305
REMARK  137  A    between atoms: _308  and  _310
REMARK  138  A    between atoms: _310  and  _311
REMARK  139  A    between atoms: _310  and  _313
REMARK  140  A    between atoms: _313  and  _314
REMARK  141  A    between atoms: _314  and  _315
REMARK  142  A    between atoms: _315  and  _316
REMARK  143  A    between atoms: _316  and  _317
REMARK  144  A    between atoms: _321  and  _323
REMARK  145  A    between atoms: _323  and  _324
REMARK  146  A    between atoms: _323  and  _326
REMARK  147  A    between atoms: _326  and  _327
REMARK  148  A    between atoms: _330  and  _332
REMARK  149  A    between atoms: _332  and  _333
REMARK  150  A    between atoms: _332  and  _335
REMARK  151  A    between atoms: _335  and  _336
REMARK  152  A    between atoms: _336  and  _337
REMARK  153  A    between atoms: _339  and  _341
REMARK  154  A    between atoms: _341  and  _342
REMARK  155  A    between atoms: _341  and  _344
REMARK  156  A    between atoms: _344  and  _345
REMARK  157  A    between atoms: _345  and  _346
REMARK  158  A    between atoms: _348  and  _350
REMARK  159  A    between atoms: _350  and  _351
REMARK  160  A    between atoms: _350  and  _353
REMARK  161  A    between atoms: _353  and  _354
REMARK  162  A    between atoms: _354  and  _355
REMARK  163  A    between atoms: _358  and  _360
REMARK  164  A    between atoms: _360  and  _361
REMARK  165  A    between atoms: _360  and  _363
REMARK  166  A    between atoms: _363  and  _364
REMARK  167  A    between atoms: _369  and  _370
REMARK  168  A    between atoms: _372  and  _374
REMARK  169  A    between atoms: _374  and  _375
REMARK  170  A    between atoms: _374  and  _377
REMARK  171  A    between atoms: _381  and  _382
REMARK  172  A    between atoms: _387  and  _389
REMARK  173  A    between atoms: _389  and  _390
REMARK  174  A    between atoms: _392  and  _394
REMARK  175  A    between atoms: _394  and  _395
REMARK  176  A    between atoms: _397  and  _399
REMARK  177  A    between atoms: _399  and  _400
REMARK  178  A    between atoms: _399  and  _402
REMARK  179  A    between atoms: _402  and  _403
REMARK  180  A    between atoms: _403  and  _404
REMARK  181  A    between atoms: _407  and  _409
REMARK  182  A    between atoms: _409  and  _410
REMARK  183  A    between atoms: _409  and  _412
REMARK  184  A    between atoms: _412  and  _413
REMARK  185  A    between atoms: _413  and  _414
REMARK  186  A    between atoms: _416  and  _418
REMARK  187  A    between atoms: _418  and  _419
REMARK  188  A    between atoms: _418  and  _421
REMARK  189  A    between atoms: _421  and  _422
REMARK  190  A    between atoms: _428  and  _430
REMARK  191  A    between atoms: _430  and  _431
REMARK  192  A    between atoms: _430  and  _433
REMARK  193  A    between atoms: _433  and  _434
REMARK  194  A    between atoms: _439  and  _440
REMARK  195  A    between atoms: _442  and  _444
REMARK  196  A    between atoms: _444  and  _445
REMARK  197  A    between atoms: _444  and  _447
REMARK  198  A    between atoms: _447  and  _448
REMARK  199  A    between atoms: _451  and  _453
REMARK  200  A    between atoms: _453  and  _454
REMARK  201  A    between atoms: _453  and  _456
REMARK  202  A    between atoms: _456  and  _457
REMARK  203  A    between atoms: _457  and  _458
REMARK  204  A    between atoms: _458  and  _459
REMARK  205  A    between atoms: _459  and  _460
REMARK  206  A    between atoms: _465  and  _466
REMARK  207  A    between atoms: _471  and  _473
REMARK  208  A    between atoms: _473  and  _474
REMARK  209  A    between atoms: _473  and  _476
REMARK  210  A    between atoms: _476  and  _477
REMARK  211  A    between atoms: _477  and  _478
REMARK  212  A    between atoms: _481  and  _483
REMARK  213  A    between atoms: _483  and  _484
REMARK  214  A    between atoms: _483  and  _486
REMARK  215  A    between atoms: _486  and  _487
REMARK  216  A    between atoms: _492  and  _494
REMARK  217  A    between atoms: _494  and  _495
REMARK  218  A    between atoms: _494  and  _497
REMARK  219  A    between atoms: _497  and  _498
REMARK  220  A    between atoms: _501  and  _503
REMARK  221  A    between atoms: _503  and  _504
REMARK  222  A    between atoms: _503  and  _506
REMARK  223  A    between atoms: _506  and  _507
REMARK  224  A    between atoms: _510  and  _512
REMARK  225  A    between atoms: _512  and  _513
REMARK  226  A    between atoms: _512  and  _515
REMARK  227  A    between atoms: _515  and  _516
REMARK  228  A    between atoms: _519  and  _521
REMARK  229  A    between atoms: _521  and  _522
REMARK  230  A    between atoms: _521  and  _524
REMARK  231  A    between atoms: _524  and  _525
REMARK  232  A    between atoms: _525  and  _526
REMARK  233  A    between atoms: _531  and  _533
REMARK  234  A    between atoms: _533  and  _534
REMARK  235  A    between atoms: _533  and  _536
REMARK  236  A    between atoms: _539  and  _541
REMARK  237  A    between atoms: _541  and  _542
REMARK  238  A    between atoms: _541  and  _544
REMARK  239  A    between atoms: _544  and  _545
REMARK  240  A    between atoms: _548  and  _550
REMARK  241  A    between atoms: _550  and  _551
REMARK  242  A    between atoms: _550  and  _553
REMARK  243  A    between atoms: _553  and  _554
REMARK  244  A    between atoms: _557  and  _559
REMARK  245  A    between atoms: _559  and  _560
REMARK  246  A    between atoms: _559  and  _562
REMARK  247  A    between atoms: _562  and  _563
REMARK  248  A    between atoms: _569  and  _571
REMARK  249  A    between atoms: _571  and  _572
REMARK  250  A    between atoms: _574  and  _576
REMARK  251  A    between atoms: _576  and  _577
REMARK  252  A    between atoms: _576  and  _579
REMARK  253  A    between atoms: _579  and  _580
REMARK  254  A    between atoms: _586  and  _588
REMARK  255  A    between atoms: _588  and  _589
REMARK  256  A    between atoms: _592  and  _594
REMARK  257  A    between atoms: _594  and  _595
REMARK  258  A    between atoms: _594  and  _597
REMARK  259  A    between atoms: _599  and  _601
REMARK  260  A    between atoms: _601  and  _602
REMARK  261  A    between atoms: _604  and  _606
REMARK  262  A    between atoms: _606  and  _607
REMARK  263  A    between atoms: _606  and  _609
REMARK  264  A    between atoms: _609  and  _610
REMARK  265  A    between atoms: _616  and  _618
REMARK  266  A    between atoms: _618  and  _619
REMARK  267  A    between atoms: _618  and  _621
REMARK  268  A    between atoms: _621  and  _622
REMARK  269  A    between atoms: _627  and  _628
REMARK                            x       y       z     vdW  Elec       q    Type
REMARK                         _______ _______ _______ _____ _____    ______ ____
ROOT
ATOM      1  O   HOH     1       0.770  16.712  28.810  0.00  0.00    +0.000 OA
ENDROOT
TORSDOF 0
REMARK  Name = ../refined-set-2016/1xh4/1xh4_pocket.pdb
REMARK  269 active torsions:
REMARK  status: ('A' for Active; 'I' for Inactive)
REMARK    1  A    between atoms: _1  and  _3
REMARK    2  A    between atoms: _3  and  _4
REMARK    3  A    between atoms: _3  and  _6
REMARK    4  A    between atoms: _6  and  _7
REMARK    5  A    between atoms: _10  and  _12
REMARK    6  A    between atoms: _12  and  _13
REMARK    7  A    between atoms: _12  and  _15
REMARK    8  A    between atoms: _15  and  _16
REMARK    9  A    between atoms: _19  and  _21
REMARK   10  A    between atoms: _21  and  _22
REMARK   11  A    between atoms: _24  and  _26
REMARK   12  A    between atoms: _26  and  _27
REMARK   13  A    between atoms: _26  and  _29
REMARK   14  A    between atoms: _29  and  _30
REMARK   15  A    between atoms: _33  and  _35
REMARK   16  A    between atoms: _35  and  _36
REMARK   17  A    between atoms: _38  and  _40
REMARK   18  A    between atoms: _40  and  _41
REMARK   19  A    between atoms: _40  and  _43
REMARK   20  A    between atoms: _43  and  _44
REMARK   21  A    between atoms: _46  and  _48
REMARK   22  A    between atoms: _48  and  _49
REMARK   23  A    between atoms: _48  and  _51
REMARK   24  A    between atoms: _51  and  _52
REMARK   25  A    between atoms: _58  and  _60
REMARK   26  A    between atoms: _60  and  _61
REMARK   27  A    between atoms: _63  and  _65
REMARK   28  A    between atoms: _65  and  _66
REMARK   29  A    between atoms: _65  and  _68
REMARK   30  A    between atoms: _68  and  _69
REMARK   31  A    between atoms: _69  and  _70
REMARK   32  A    between atoms: _70  and  _71
REMARK   33  A    between atoms: _80  and  _82
REMARK   34  A    between atoms: _82  and  _83
REMARK   35  A    between atoms: _82  and  _85
REMARK   36  A    between atoms: _88  and  _90
REMARK   37  A    between atoms: _90  and  _91
REMARK   38  A    between atoms: _90  and  _93
REMARK   39  A    between atoms: _93  and  _94
REMARK   40  A    between atoms: _94  and  _95
REMARK   41  A    between atoms: _97  and  _99
REMARK   42  A    between atoms: _99  and  _100
REMARK   43  A    between atoms: _99  and  _102
REMARK   44  A    between atoms: _102  and  _103
REMARK   45  A    between atoms: _106  and  _108
REMARK   46  A    between atoms: _108  and  _109
REMARK   47  A    between atoms: _108  and  _111
REMARK   48  A    between atoms: _111  and  _112
REMARK   49  A    between atoms: _117  and  _118
REMARK   50  A    between atoms: _120  and  _122
REMARK   51  A    between atoms: _122  and  _123
REMARK   52  A    between atoms: _126  and  _128
REMARK   53  A    between atoms: _128  and  _129
REMARK   54  A    between atoms: _128  and  _131
REMARK   55  A    between atoms: _131  and  _132
REMARK   56  A    between atoms: _132  and  _133
REMARK   57  A    between atoms: _135  and  _137
REMARK   58  A    between atoms: _137  and  _138
REMARK   59  A    between atoms: _137  and  _140
REMARK   60  A    between atoms: _140  and  _141
REMARK   61  A    between atoms: _141  and  _142
REMARK   62  A    between atoms: _142  and  _143
REMARK   63  A    between atoms: _143  and  _144
REMARK   64  A    between atoms: _148  and  _150
REMARK   65  A    between atoms: _150  and  _151
REMARK   66  A    between atoms: _150  and  _153
REMARK   67  A    between atoms: _153  and  _154
REMARK   68  A    between atoms: _157  and  _159
REMARK   69  A    between atoms: _159  and  _160
REMARK   70  A    between atoms: _159  and  _162
REMARK   71  A    between atoms: _162  and  _163
REMARK   72  A    between atoms: _166  and  _168
REMARK   73  A    between atoms: _168  and  _169
REMARK   74  A    between atoms: _168  and  _171
REMARK   75  A    between atoms: _171  and  _172
REMARK   76  A    between atoms: _175  and  _177
REMARK   77  A    between atoms: _177  and  _178
REMARK   78  A    between atoms: _177  and  _180
REMARK   79  A    between atoms: _180  and  _181
REMARK   80  A    between atoms: _181  and  _182
REMARK   81  A    between atoms: _182  and  _183
REMARK   82  A    between atoms: _183  and  _184
REMARK   83  A    between atoms: _188  and  _190
REMARK   84  A    between atoms: _190  and  _191
REMARK   85  A    between atoms: _190  and  _193
REMARK   86  A    between atoms: _196  and  _198
REMARK   87  A    between atoms: _198  and  _199
REMARK   88  A    between atoms: _198  and  _201
REMARK   89  A    between atoms: _201  and  _202
REMARK   90  A    between atoms: _205  and  _207
REMARK   91  A    between atoms: _207  and  _208
REMARK   92  A    between atoms: _207  and  _210
REMARK   93  A    between atoms: _210  and  _211
REMARK   94  A    between atoms: _211  and  _212
REMARK   95  A    between atoms: _212  and  _213
REMARK   96  A    between atoms: _213  and  _214
REMARK   97  A    between atoms: _218  and  _220
REMARK   98  A    between atoms: _220  and  _221
REMARK   99  A    between atoms: _220  and  _223
REMARK  100  A    between atoms: _223  and  _224
REMARK  101  A    between atoms: _224  and  _225
REMARK  102  A    between atoms: _230  and  _232
REMARK  103  A    between atoms: _232  and  _233
REMARK  104  A    between atoms: _232  and  _235
REMARK  105  A    between atoms: _235  and  _236
REMARK  106  A    between atoms: _239  and  _241
REMARK  107  A    between atoms: _241  and  _242
REMARK  108  A    between atoms: _241  and  _244
REMARK  109  A    between atoms: _244  and  _245
REMARK  110  A    between atoms: _250  and  _252
REMARK  111  A    between atoms: _252  and  _253
REMARK  112  A    between atoms: _252  and  _255
REMARK  113  A    between atoms: _255  and  _256
REMARK  114  A    between atoms: _259  and  _261
REMARK  115  A    between atoms: _261  and  _262
REMARK  116  A    between atoms: _261  and  _264
REMARK  117  A    between atoms: _264  and  _265
REMARK  118  A    between atoms: _268  and  _270
REMARK  119  A    between atoms: _270  and  _271
REMARK  120  A    between atoms: _270  and  _273
REMARK  121  A    between atoms: _273  and  _274
REMARK  122  A    between atoms: _274  and  _275
REMARK  123  A    between atoms: _278  and  _280
REMARK  124  A    between atoms: _280  and  _281
REMARK  125  A    between atoms: _280  and  _283
REMARK  126  A    between atoms: _283  and  _284
REMARK  127  A    between atoms: _284  and  _285
REMARK  128  A    between atoms: _285  and  _286
REMARK  129  A    between atoms: _286  and  _287
REMARK  130  A    between atoms: _291  and  _293
REMARK  131  A    between atoms: _293  and  _294
REMARK  132  A    between atoms: _293  and  _296
REMARK  133  A    between atoms: _296  and  _297
REMARK  134  A    between atoms: _300  and  _302
REMARK  135  A    between atoms: _302  and  _303
REMARK  136  A    between atoms: _302  and  _305
REMARK  137  A    between atoms: _308  and  _310
REMARK  138  A    between atoms: _310  and  _311
REMARK  139  A    between atoms: _310  and  _313
REMARK  140  A    between atoms: _313  and  _314
REMARK  141  A    between atoms: _314  and  _315
REMARK  142  A    between atoms: _315  and  _316
REMARK  143  A    between atoms: _316  and  _317
REMARK  144  A    between atoms: _321  and  _323
REMARK  145  A    between atoms: _323  and  _324
REMARK  146  A    between atoms: _323  and  _326
REMARK  147  A    between atoms: _326  and  _327
REMARK  148  A    between atoms: _330  and  _332
REMARK  149  A    between atoms: _332  and  _333
REMARK  150  A    between atoms: _332  and  _335
REMARK  151  A    between atoms: _335  and  _336
REMARK  152  A    between atoms: _336  and  _337
REMARK  153  A    between atoms: _339  and  _341
REMARK  154  A    between atoms: _341  and  _342
REMARK  155  A    between atoms: _341  and  _344
REMARK  156  A    between atoms: _344  and  _345
REMARK  157  A    between atoms: _345  and  _346
REMARK  158  A    between atoms: _348  and  _350
REMARK  159  A    between atoms: _350  and  _351
REMARK  160  A    between atoms: _350  and  _353
REMARK  161  A    between atoms: _353  and  _354
REMARK  162  A    between atoms: _354  and  _355
REMARK  163  A    between atoms: _358  and  _360
REMARK  164  A    between atoms: _360  and  _361
REMARK  165  A    between atoms: _360  and  _363
REMARK  166  A    between atoms: _363  and  _364
REMARK  167  A    between atoms: _369  and  _370
REMARK  168  A    between atoms: _372  and  _374
REMARK  169  A    between atoms: _374  and  _375
REMARK  170  A    between atoms: _374  and  _377
REMARK  171  A    between atoms: _381  and  _382
REMARK  172  A    between atoms: _387  and  _389
REMARK  173  A    between atoms: _389  and  _390
REMARK  174  A    between atoms: _392  and  _394
REMARK  175  A    between atoms: _394  and  _395
REMARK  176  A    between atoms: _397  and  _399
REMARK  177  A    between atoms: _399  and  _400
REMARK  178  A    between atoms: _399  and  _402
REMARK  179  A    between atoms: _402  and  _403
REMARK  180  A    between atoms: _403  and  _404
REMARK  181  A    between atoms: _407  and  _409
REMARK  182  A    between atoms: _409  and  _410
REMARK  183  A    between atoms: _409  and  _412
REMARK  184  A    between atoms: _412  and  _413
REMARK  185  A    between atoms: _413  and  _414
REMARK  186  A    between atoms: _416  and  _418
REMARK  187  A    between atoms: _418  and  _419
REMARK  188  A    between atoms: _418  and  _421
REMARK  189  A    between atoms: _421  and  _422
REMARK  190  A    between atoms: _428  and  _430
REMARK  191  A    between atoms: _430  and  _431
REMARK  192  A    between atoms: _430  and  _433
REMARK  193  A    between atoms: _433  and  _434
REMARK  194  A    between atoms: _439  and  _440
REMARK  195  A    between atoms: _442  and  _444
REMARK  196  A    between atoms: _444  and  _445
REMARK  197  A    between atoms: _444  and  _447
REMARK  198  A    between atoms: _447  and  _448
REMARK  199  A    between atoms: _451  and  _453
REMARK  200  A    between atoms: _453  and  _454
REMARK  201  A    between atoms: _453  and  _456
REMARK  202  A    between atoms: _456  and  _457
REMARK  203  A    between atoms: _457  and  _458
REMARK  204  A    between atoms: _458  and  _459
REMARK  205  A    between atoms: _459  and  _460
REMARK  206  A    between atoms: _465  and  _466
REMARK  207  A    between atoms: _471  and  _473
REMARK  208  A    between atoms: _473  and  _474
REMARK  209  A    between atoms: _473  and  _476
REMARK  210  A    between atoms: _476  and  _477
REMARK  211  A    between atoms: _477  and  _478
REMARK  212  A    between atoms: _481  and  _483
REMARK  213  A    between atoms: _483  and  _484
REMARK  214  A    between atoms: _483  and  _486
REMARK  215  A    between atoms: _486  and  _487
REMARK  216  A    between atoms: _492  and  _494
REMARK  217  A    between atoms: _494  and  _495
REMARK  218  A    between atoms: _494  and  _497
REMARK  219  A    between atoms: _497  and  _498
REMARK  220  A    between atoms: _501  and  _503
REMARK  221  A    between atoms: _503  and  _504
REMARK  222  A    between atoms: _503  and  _506
REMARK  223  A    between atoms: _506  and  _507
REMARK  224  A    between atoms: _510  and  _512
REMARK  225  A    between atoms: _512  and  _513
REMARK  226  A    between atoms: _512  and  _515
REMARK  227  A    between atoms: _515  and  _516
REMARK  228  A    between atoms: _519  and  _521
REMARK  229  A    between atoms: _521  and  _522
REMARK  230  A    between atoms: _521  and  _524
REMARK  231  A    between atoms: _524  and  _525
REMARK  232  A    between atoms: _525  and  _526
REMARK  233  A    between atoms: _531  and  _533
REMARK  234  A    between atoms: _533  and  _534
REMARK  235  A    between atoms: _533  and  _536
REMARK  236  A    between atoms: _539  and  _541
REMARK  237  A    between atoms: _541  and  _542
REMARK  238  A    between atoms: _541  and  _544
REMARK  239  A    between atoms: _544  and  _545
REMARK  240  A    between atoms: _548  and  _550
REMARK  241  A    between atoms: _550  and  _551
REMARK  242  A    between atoms: _550  and  _553
REMARK  243  A    between atoms: _553  and  _554
REMARK  244  A    between atoms: _557  and  _559
REMARK  245  A    between atoms: _559  and  _560
REMARK  246  A    between atoms: _559  and  _562
REMARK  247  A    between atoms: _562  and  _563
REMARK  248  A    between atoms: _569  and  _571
REMARK  249  A    between atoms: _571  and  _572
REMARK  250  A    between atoms: _574  and  _576
REMARK  251  A    between atoms: _576  and  _577
REMARK  252  A    between atoms: _576  and  _579
REMARK  253  A    between atoms: _579  and  _580
REMARK  254  A    between atoms: _586  and  _588
REMARK  255  A    between atoms: _588  and  _589
REMARK  256  A    between atoms: _592  and  _594
REMARK  257  A    between atoms: _594  and  _595
REMARK  258  A    between atoms: _594  and  _597
REMARK  259  A    between atoms: _599  and  _601
REMARK  260  A    between atoms: _601  and  _602
REMARK  261  A    between atoms: _604  and  _606
REMARK  262  A    between atoms: _606  and  _607
REMARK  263  A    between atoms: _606  and  _609
REMARK  264  A    between atoms: _609  and  _610
REMARK  265  A    between atoms: _616  and  _618
REMARK  266  A    between atoms: _618  and  _619
REMARK  267  A    between atoms: _618  and  _621
REMARK  268  A    between atoms: _621  and  _622
REMARK  269  A    between atoms: _627  and  _628
REMARK                            x       y       z     vdW  Elec       q    Type
REMARK                         _______ _______ _______ _____ _____    ______ ____
ROOT
ATOM      1  O   HOH     1       3.666  20.047  27.640  0.00  0.00    +0.000 OA
ENDROOT
TORSDOF 0
REMARK  Name = ../refined-set-2016/1xh4/1xh4_pocket.pdb
REMARK  269 active torsions:
REMARK  status: ('A' for Active; 'I' for Inactive)
REMARK    1  A    between atoms: _1  and  _3
REMARK    2  A    between atoms: _3  and  _4
REMARK    3  A    between atoms: _3  and  _6
REMARK    4  A    between atoms: _6  and  _7
REMARK    5  A    between atoms: _10  and  _12
REMARK    6  A    between atoms: _12  and  _13
REMARK    7  A    between atoms: _12  and  _15
REMARK    8  A    between atoms: _15  and  _16
REMARK    9  A    between atoms: _19  and  _21
REMARK   10  A    between atoms: _21  and  _22
REMARK   11  A    between atoms: _24  and  _26
REMARK   12  A    between atoms: _26  and  _27
REMARK   13  A    between atoms: _26  and  _29
REMARK   14  A    between atoms: _29  and  _30
REMARK   15  A    between atoms: _33  and  _35
REMARK   16  A    between atoms: _35  and  _36
REMARK   17  A    between atoms: _38  and  _40
REMARK   18  A    between atoms: _40  and  _41
REMARK   19  A    between atoms: _40  and  _43
REMARK   20  A    between atoms: _43  and  _44
REMARK   21  A    between atoms: _46  and  _48
REMARK   22  A    between atoms: _48  and  _49
REMARK   23  A    between atoms: _48  and  _51
REMARK   24  A    between atoms: _51  and  _52
REMARK   25  A    between atoms: _58  and  _60
REMARK   26  A    between atoms: _60  and  _61
REMARK   27  A    between atoms: _63  and  _65
REMARK   28  A    between atoms: _65  and  _66
REMARK   29  A    between atoms: _65  and  _68
REMARK   30  A    between atoms: _68  and  _69
REMARK   31  A    between atoms: _69  and  _70
REMARK   32  A    between atoms: _70  and  _71
REMARK   33  A    between atoms: _80  and  _82
REMARK   34  A    between atoms: _82  and  _83
REMARK   35  A    between atoms: _82  and  _85
REMARK   36  A    between atoms: _88  and  _90
REMARK   37  A    between atoms: _90  and  _91
REMARK   38  A    between atoms: _90  and  _93
REMARK   39  A    between atoms: _93  and  _94
REMARK   40  A    between atoms: _94  and  _95
REMARK   41  A    between atoms: _97  and  _99
REMARK   42  A    between atoms: _99  and  _100
REMARK   43  A    between atoms: _99  and  _102
REMARK   44  A    between atoms: _102  and  _103
REMARK   45  A    between atoms: _106  and  _108
REMARK   46  A    between atoms: _108  and  _109
REMARK   47  A    between atoms: _108  and  _111
REMARK   48  A    between atoms: _111  and  _112
REMARK   49  A    between atoms: _117  and  _118
REMARK   50  A    between atoms: _120  and  _122
REMARK   51  A    between atoms: _122  and  _123
REMARK   52  A    between atoms: _126  and  _128
REMARK   53  A    between atoms: _128  and  _129
REMARK   54  A    between atoms: _128  and  _131
REMARK   55  A    between atoms: _131  and  _132
REMARK   56  A    between atoms: _132  and  _133
REMARK   57  A    between atoms: _135  and  _137
REMARK   58  A    between atoms: _137  and  _138
REMARK   59  A    between atoms: _137  and  _140
REMARK   60  A    between atoms: _140  and  _141
REMARK   61  A    between atoms: _141  and  _142
REMARK   62  A    between atoms: _142  and  _143
REMARK   63  A    between atoms: _143  and  _144
REMARK   64  A    between atoms: _148  and  _150
REMARK   65  A    between atoms: _150  and  _151
REMARK   66  A    between atoms: _150  and  _153
REMARK   67  A    between atoms: _153  and  _154
REMARK   68  A    between atoms: _157  and  _159
REMARK   69  A    between atoms: _159  and  _160
REMARK   70  A    between atoms: _159  and  _162
REMARK   71  A    between atoms: _162  and  _163
REMARK   72  A    between atoms: _166  and  _168
REMARK   73  A    between atoms: _168  and  _169
REMARK   74  A    between atoms: _168  and  _171
REMARK   75  A    between atoms: _171  and  _172
REMARK   76  A    between atoms: _175  and  _177
REMARK   77  A    between atoms: _177  and  _178
REMARK   78  A    between atoms: _177  and  _180
REMARK   79  A    between atoms: _180  and  _181
REMARK   80  A    between atoms: _181  and  _182
REMARK   81  A    between atoms: _182  and  _183
REMARK   82  A    between atoms: _183  and  _184
REMARK   83  A    between atoms: _188  and  _190
REMARK   84  A    between atoms: _190  and  _191
REMARK   85  A    between atoms: _190  and  _193
REMARK   86  A    between atoms: _196  and  _198
REMARK   87  A    between atoms: _198  and  _199
REMARK   88  A    between atoms: _198  and  _201
REMARK   89  A    between atoms: _201  and  _202
REMARK   90  A    between atoms: _205  and  _207
REMARK   91  A    between atoms: _207  and  _208
REMARK   92  A    between atoms: _207  and  _210
REMARK   93  A    between atoms: _210  and  _211
REMARK   94  A    between atoms: _211  and  _212
REMARK   95  A    between atoms: _212  and  _213
REMARK   96  A    between atoms: _213  and  _214
REMARK   97  A    between atoms: _218  and  _220
REMARK   98  A    between atoms: _220  and  _221
REMARK   99  A    between atoms: _220  and  _223
REMARK  100  A    between atoms: _223  and  _224
REMARK  101  A    between atoms: _224  and  _225
REMARK  102  A    between atoms: _230  and  _232
REMARK  103  A    between atoms: _232  and  _233
REMARK  104  A    between atoms: _232  and  _235
REMARK  105  A    between atoms: _235  and  _236
REMARK  106  A    between atoms: _239  and  _241
REMARK  107  A    between atoms: _241  and  _242
REMARK  108  A    between atoms: _241  and  _244
REMARK  109  A    between atoms: _244  and  _245
REMARK  110  A    between atoms: _250  and  _252
REMARK  111  A    between atoms: _252  and  _253
REMARK  112  A    between atoms: _252  and  _255
REMARK  113  A    between atoms: _255  and  _256
REMARK  114  A    between atoms: _259  and  _261
REMARK  115  A    between atoms: _261  and  _262
REMARK  116  A    between atoms: _261  and  _264
REMARK  117  A    between atoms: _264  and  _265
REMARK  118  A    between atoms: _268  and  _270
REMARK  119  A    between atoms: _270  and  _271
REMARK  120  A    between atoms: _270  and  _273
REMARK  121  A    between atoms: _273  and  _274
REMARK  122  A    between atoms: _274  and  _275
REMARK  123  A    between atoms: _278  and  _280
REMARK  124  A    between atoms: _280  and  _281
REMARK  125  A    between atoms: _280  and  _283
REMARK  126  A    between atoms: _283  and  _284
REMARK  127  A    between atoms: _284  and  _285
REMARK  128  A    between atoms: _285  and  _286
REMARK  129  A    between atoms: _286  and  _287
REMARK  130  A    between atoms: _291  and  _293
REMARK  131  A    between atoms: _293  and  _294
REMARK  132  A    between atoms: _293  and  _296
REMARK  133  A    between atoms: _296  and  _297
REMARK  134  A    between atoms: _300  and  _302
REMARK  135  A    between atoms: _302  and  _303
REMARK  136  A    between atoms: _302  and  _305
REMARK  137  A    between atoms: _308  and  _310
REMARK  138  A    between atoms: _310  and  _311
REMARK  139  A    between atoms: _310  and  _313
REMARK  140  A    between atoms: _313  and  _314
REMARK  141  A    between atoms: _314  and  _315
REMARK  142  A    between atoms: _315  and  _316
REMARK  143  A    between atoms: _316  and  _317
REMARK  144  A    between atoms: _321  and  _323
REMARK  145  A    between atoms: _323  and  _324
REMARK  146  A    between atoms: _323  and  _326
REMARK  147  A    between atoms: _326  and  _327
REMARK  148  A    between atoms: _330  and  _332
REMARK  149  A    between atoms: _332  and  _333
REMARK  150  A    between atoms: _332  and  _335
REMARK  151  A    between atoms: _335  and  _336
REMARK  152  A    between atoms: _336  and  _337
REMARK  153  A    between atoms: _339  and  _341
REMARK  154  A    between atoms: _341  and  _342
REMARK  155  A    between atoms: _341  and  _344
REMARK  156  A    between atoms: _344  and  _345
REMARK  157  A    between atoms: _345  and  _346
REMARK  158  A    between atoms: _348  and  _350
REMARK  159  A    between atoms: _350  and  _351
REMARK  160  A    between atoms: _350  and  _353
REMARK  161  A    between atoms: _353  and  _354
REMARK  162  A    between atoms: _354  and  _355
REMARK  163  A    between atoms: _358  and  _360
REMARK  164  A    between atoms: _360  and  _361
REMARK  165  A    between atoms: _360  and  _363
REMARK  166  A    between atoms: _363  and  _364
REMARK  167  A    between atoms: _369  and  _370
REMARK  168  A    between atoms: _372  and  _374
REMARK  169  A    between atoms: _374  and  _375
REMARK  170  A    between atoms: _374  and  _377
REMARK  171  A    between atoms: _381  and  _382
REMARK  172  A    between atoms: _387  and  _389
REMARK  173  A    between atoms: _389  and  _390
REMARK  174  A    between atoms: _392  and  _394
REMARK  175  A    between atoms: _394  and  _395
REMARK  176  A    between atoms: _397  and  _399
REMARK  177  A    between atoms: _399  and  _400
REMARK  178  A    between atoms: _399  and  _402
REMARK  179  A    between atoms: _402  and  _403
REMARK  180  A    between atoms: _403  and  _404
REMARK  181  A    between atoms: _407  and  _409
REMARK  182  A    between atoms: _409  and  _410
REMARK  183  A    between atoms: _409  and  _412
REMARK  184  A    between atoms: _412  and  _413
REMARK  185  A    between atoms: _413  and  _414
REMARK  186  A    between atoms: _416  and  _418
REMARK  187  A    between atoms: _418  and  _419
REMARK  188  A    between atoms: _418  and  _421
REMARK  189  A    between atoms: _421  and  _422
REMARK  190  A    between atoms: _428  and  _430
REMARK  191  A    between atoms: _430  and  _431
REMARK  192  A    between atoms: _430  and  _433
REMARK  193  A    between atoms: _433  and  _434
REMARK  194  A    between atoms: _439  and  _440
REMARK  195  A    between atoms: _442  and  _444
REMARK  196  A    between atoms: _444  and  _445
REMARK  197  A    between atoms: _444  and  _447
REMARK  198  A    between atoms: _447  and  _448
REMARK  199  A    between atoms: _451  and  _453
REMARK  200  A    between atoms: _453  and  _454
REMARK  201  A    between atoms: _453  and  _456
REMARK  202  A    between atoms: _456  and  _457
REMARK  203  A    between atoms: _457  and  _458
REMARK  204  A    between atoms: _458  and  _459
REMARK  205  A    between atoms: _459  and  _460
REMARK  206  A    between atoms: _465  and  _466
REMARK  207  A    between atoms: _471  and  _473
REMARK  208  A    between atoms: _473  and  _474
REMARK  209  A    between atoms: _473  and  _476
REMARK  210  A    between atoms: _476  and  _477
REMARK  211  A    between atoms: _477  and  _478
REMARK  212  A    between atoms: _481  and  _483
REMARK  213  A    between atoms: _483  and  _484
REMARK  214  A    between atoms: _483  and  _486
REMARK  215  A    between atoms: _486  and  _487
REMARK  216  A    between atoms: _492  and  _494
REMARK  217  A    between atoms: _494  and  _495
REMARK  218  A    between atoms: _494  and  _497
REMARK  219  A    between atoms: _497  and  _498
REMARK  220  A    between atoms: _501  and  _503
REMARK  221  A    between atoms: _503  and  _504
REMARK  222  A    between atoms: _503  and  _506
REMARK  223  A    between atoms: _506  and  _507
REMARK  224  A    between atoms: _510  and  _512
REMARK  225  A    between atoms: _512  and  _513
REMARK  226  A    between atoms: _512  and  _515
REMARK  227  A    between atoms: _515  and  _516
REMARK  228  A    between atoms: _519  and  _521
REMARK  229  A    between atoms: _521  and  _522
REMARK  230  A    between atoms: _521  and  _524
REMARK  231  A    between atoms: _524  and  _525
REMARK  232  A    between atoms: _525  and  _526
REMARK  233  A    between atoms: _531  and  _533
REMARK  234  A    between atoms: _533  and  _534
REMARK  235  A    between atoms: _533  and  _536
REMARK  236  A    between atoms: _539  and  _541
REMARK  237  A    between atoms: _541  and  _542
REMARK  238  A    between atoms: _541  and  _544
REMARK  239  A    between atoms: _544  and  _545
REMARK  240  A    between atoms: _548  and  _550
REMARK  241  A    between atoms: _550  and  _551
REMARK  242  A    between atoms: _550  and  _553
REMARK  243  A    between atoms: _553  and  _554
REMARK  244  A    between atoms: _557  and  _559
REMARK  245  A    between atoms: _559  and  _560
REMARK  246  A    between atoms: _559  and  _562
REMARK  247  A    between atoms: _562  and  _563
REMARK  248  A    between atoms: _569  and  _571
REMARK  249  A    between atoms: _571  and  _572
REMARK  250  A    between atoms: _574  and  _576
REMARK  251  A    between atoms: _576  and  _577
REMARK  252  A    between atoms: _576  and  _579
REMARK  253  A    between atoms: _579  and  _580
REMARK  254  A    between atoms: _586  and  _588
REMARK  255  A    between atoms: _588  and  _589
REMARK  256  A    between atoms: _592  and  _594
REMARK  257  A    between atoms: _594  and  _595
REMARK  258  A    between atoms: _594  and  _597
REMARK  259  A    between atoms: _599  and  _601
REMARK  260  A    between atoms: _601  and  _602
REMARK  261  A    between atoms: _604  and  _606
REMARK  262  A    between atoms: _606  and  _607
REMARK  263  A    between atoms: _606  and  _609
REMARK  264  A    between atoms: _609  and  _610
REMARK  265  A    between atoms: _616  and  _618
REMARK  266  A    between atoms: _618  and  _619
REMARK  267  A    between atoms: _618  and  _621
REMARK  268  A    between atoms: _621  and  _622
REMARK  269  A    between atoms: _627  and  _628
REMARK                            x       y       z     vdW  Elec       q    Type
REMARK                         _______ _______ _______ _____ _____    ______ ____
ROOT
ATOM      1  O   HOH     1       0.577  18.928  30.880  0.00  0.00    +0.000 OA
ENDROOT
TORSDOF 0
REMARK  Name = ../refined-set-2016/1xh4/1xh4_pocket.pdb
REMARK  269 active torsions:
REMARK  status: ('A' for Active; 'I' for Inactive)
REMARK    1  A    between atoms: _1  and  _3
REMARK    2  A    between atoms: _3  and  _4
REMARK    3  A    between atoms: _3  and  _6
REMARK    4  A    between atoms: _6  and  _7
REMARK    5  A    between atoms: _10  and  _12
REMARK    6  A    between atoms: _12  and  _13
REMARK    7  A    between atoms: _12  and  _15
REMARK    8  A    between atoms: _15  and  _16
REMARK    9  A    between atoms: _19  and  _21
REMARK   10  A    between atoms: _21  and  _22
REMARK   11  A    between atoms: _24  and  _26
REMARK   12  A    between atoms: _26  and  _27
REMARK   13  A    between atoms: _26  and  _29
REMARK   14  A    between atoms: _29  and  _30
REMARK   15  A    between atoms: _33  and  _35
REMARK   16  A    between atoms: _35  and  _36
REMARK   17  A    between atoms: _38  and  _40
REMARK   18  A    between atoms: _40  and  _41
REMARK   19  A    between atoms: _40  and  _43
REMARK   20  A    between atoms: _43  and  _44
REMARK   21  A    between atoms: _46  and  _48
REMARK   22  A    between atoms: _48  and  _49
REMARK   23  A    between atoms: _48  and  _51
REMARK   24  A    between atoms: _51  and  _52
REMARK   25  A    between atoms: _58  and  _60
REMARK   26  A    between atoms: _60  and  _61
REMARK   27  A    between atoms: _63  and  _65
REMARK   28  A    between atoms: _65  and  _66
REMARK   29  A    between atoms: _65  and  _68
REMARK   30  A    between atoms: _68  and  _69
REMARK   31  A    between atoms: _69  and  _70
REMARK   32  A    between atoms: _70  and  _71
REMARK   33  A    between atoms: _80  and  _82
REMARK   34  A    between atoms: _82  and  _83
REMARK   35  A    between atoms: _82  and  _85
REMARK   36  A    between atoms: _88  and  _90
REMARK   37  A    between atoms: _90  and  _91
REMARK   38  A    between atoms: _90  and  _93
REMARK   39  A    between atoms: _93  and  _94
REMARK   40  A    between atoms: _94  and  _95
REMARK   41  A    between atoms: _97  and  _99
REMARK   42  A    between atoms: _99  and  _100
REMARK   43  A    between atoms: _99  and  _102
REMARK   44  A    between atoms: _102  and  _103
REMARK   45  A    between atoms: _106  and  _108
REMARK   46  A    between atoms: _108  and  _109
REMARK   47  A    between atoms: _108  and  _111
REMARK   48  A    between atoms: _111  and  _112
REMARK   49  A    between atoms: _117  and  _118
REMARK   50  A    between atoms: _120  and  _122
REMARK   51  A    between atoms: _122  and  _123
REMARK   52  A    between atoms: _126  and  _128
REMARK   53  A    between atoms: _128  and  _129
REMARK   54  A    between atoms: _128  and  _131
REMARK   55  A    between atoms: _131  and  _132
REMARK   56  A    between atoms: _132  and  _133
REMARK   57  A    between atoms: _135  and  _137
REMARK   58  A    between atoms: _137  and  _138
REMARK   59  A    between atoms: _137  and  _140
REMARK   60  A    between atoms: _140  and  _141
REMARK   61  A    between atoms: _141  and  _142
REMARK   62  A    between atoms: _142  and  _143
REMARK   63  A    between atoms: _143  and  _144
REMARK   64  A    between atoms: _148  and  _150
REMARK   65  A    between atoms: _150  and  _151
REMARK   66  A    between atoms: _150  and  _153
REMARK   67  A    between atoms: _153  and  _154
REMARK   68  A    between atoms: _157  and  _159
REMARK   69  A    between atoms: _159  and  _160
REMARK   70  A    between atoms: _159  and  _162
REMARK   71  A    between atoms: _162  and  _163
REMARK   72  A    between atoms: _166  and  _168
REMARK   73  A    between atoms: _168  and  _169
REMARK   74  A    between atoms: _168  and  _171
REMARK   75  A    between atoms: _171  and  _172
REMARK   76  A    between atoms: _175  and  _177
REMARK   77  A    between atoms: _177  and  _178
REMARK   78  A    between atoms: _177  and  _180
REMARK   79  A    between atoms: _180  and  _181
REMARK   80  A    between atoms: _181  and  _182
REMARK   81  A    between atoms: _182  and  _183
REMARK   82  A    between atoms: _183  and  _184
REMARK   83  A    between atoms: _188  and  _190
REMARK   84  A    between atoms: _190  and  _191
REMARK   85  A    between atoms: _190  and  _193
REMARK   86  A    between atoms: _196  and  _198
REMARK   87  A    between atoms: _198  and  _199
REMARK   88  A    between atoms: _198  and  _201
REMARK   89  A    between atoms: _201  and  _202
REMARK   90  A    between atoms: _205  and  _207
REMARK   91  A    between atoms: _207  and  _208
REMARK   92  A    between atoms: _207  and  _210
REMARK   93  A    between atoms: _210  and  _211
REMARK   94  A    between atoms: _211  and  _212
REMARK   95  A    between atoms: _212  and  _213
REMARK   96  A    between atoms: _213  and  _214
REMARK   97  A    between atoms: _218  and  _220
REMARK   98  A    between atoms: _220  and  _221
REMARK   99  A    between atoms: _220  and  _223
REMARK  100  A    between atoms: _223  and  _224
REMARK  101  A    between atoms: _224  and  _225
REMARK  102  A    between atoms: _230  and  _232
REMARK  103  A    between atoms: _232  and  _233
REMARK  104  A    between atoms: _232  and  _235
REMARK  105  A    between atoms: _235  and  _236
REMARK  106  A    between atoms: _239  and  _241
REMARK  107  A    between atoms: _241  and  _242
REMARK  108  A    between atoms: _241  and  _244
REMARK  109  A    between atoms: _244  and  _245
REMARK  110  A    between atoms: _250  and  _252
REMARK  111  A    between atoms: _252  and  _253
REMARK  112  A    between atoms: _252  and  _255
REMARK  113  A    between atoms: _255  and  _256
REMARK  114  A    between atoms: _259  and  _261
REMARK  115  A    between atoms: _261  and  _262
REMARK  116  A    between atoms: _261  and  _264
REMARK  117  A    between atoms: _264  and  _265
REMARK  118  A    between atoms: _268  and  _270
REMARK  119  A    between atoms: _270  and  _271
REMARK  120  A    between atoms: _270  and  _273
REMARK  121  A    between atoms: _273  and  _274
REMARK  122  A    between atoms: _274  and  _275
REMARK  123  A    between atoms: _278  and  _280
REMARK  124  A    between atoms: _280  and  _281
REMARK  125  A    between atoms: _280  and  _283
REMARK  126  A    between atoms: _283  and  _284
REMARK  127  A    between atoms: _284  and  _285
REMARK  128  A    between atoms: _285  and  _286
REMARK  129  A    between atoms: _286  and  _287
REMARK  130  A    between atoms: _291  and  _293
REMARK  131  A    between atoms: _293  and  _294
REMARK  132  A    between atoms: _293  and  _296
REMARK  133  A    between atoms: _296  and  _297
REMARK  134  A    between atoms: _300  and  _302
REMARK  135  A    between atoms: _302  and  _303
REMARK  136  A    between atoms: _302  and  _305
REMARK  137  A    between atoms: _308  and  _310
REMARK  138  A    between atoms: _310  and  _311
REMARK  139  A    between atoms: _310  and  _313
REMARK  140  A    between atoms: _313  and  _314
REMARK  141  A    between atoms: _314  and  _315
REMARK  142  A    between atoms: _315  and  _316
REMARK  143  A    between atoms: _316  and  _317
REMARK  144  A    between atoms: _321  and  _323
REMARK  145  A    between atoms: _323  and  _324
REMARK  146  A    between atoms: _323  and  _326
REMARK  147  A    between atoms: _326  and  _327
REMARK  148  A    between atoms: _330  and  _332
REMARK  149  A    between atoms: _332  and  _333
REMARK  150  A    between atoms: _332  and  _335
REMARK  151  A    between atoms: _335  and  _336
REMARK  152  A    between atoms: _336  and  _337
REMARK  153  A    between atoms: _339  and  _341
REMARK  154  A    between atoms: _341  and  _342
REMARK  155  A    between atoms: _341  and  _344
REMARK  156  A    between atoms: _344  and  _345
REMARK  157  A    between atoms: _345  and  _346
REMARK  158  A    between atoms: _348  and  _350
REMARK  159  A    between atoms: _350  and  _351
REMARK  160  A    between atoms: _350  and  _353
REMARK  161  A    between atoms: _353  and  _354
REMARK  162  A    between atoms: _354  and  _355
REMARK  163  A    between atoms: _358  and  _360
REMARK  164  A    between atoms: _360  and  _361
REMARK  165  A    between atoms: _360  and  _363
REMARK  166  A    between atoms: _363  and  _364
REMARK  167  A    between atoms: _369  and  _370
REMARK  168  A    between atoms: _372  and  _374
REMARK  169  A    between atoms: _374  and  _375
REMARK  170  A    between atoms: _374  and  _377
REMARK  171  A    between atoms: _381  and  _382
REMARK  172  A    between atoms: _387  and  _389
REMARK  173  A    between atoms: _389  and  _390
REMARK  174  A    between atoms: _392  and  _394
REMARK  175  A    between atoms: _394  and  _395
REMARK  176  A    between atoms: _397  and  _399
REMARK  177  A    between atoms: _399  and  _400
REMARK  178  A    between atoms: _399  and  _402
REMARK  179  A    between atoms: _402  and  _403
REMARK  180  A    between atoms: _403  and  _404
REMARK  181  A    between atoms: _407  and  _409
REMARK  182  A    between atoms: _409  and  _410
REMARK  183  A    between atoms: _409  and  _412
REMARK  184  A    between atoms: _412  and  _413
REMARK  185  A    between atoms: _413  and  _414
REMARK  186  A    between atoms: _416  and  _418
REMARK  187  A    between atoms: _418  and  _419
REMARK  188  A    between atoms: _418  and  _421
REMARK  189  A    between atoms: _421  and  _422
REMARK  190  A    between atoms: _428  and  _430
REMARK  191  A    between atoms: _430  and  _431
REMARK  192  A    between atoms: _430  and  _433
REMARK  193  A    between atoms: _433  and  _434
REMARK  194  A    between atoms: _439  and  _440
REMARK  195  A    between atoms: _442  and  _444
REMARK  196  A    between atoms: _444  and  _445
REMARK  197  A    between atoms: _444  and  _447
REMARK  198  A    between atoms: _447  and  _448
REMARK  199  A    between atoms: _451  and  _453
REMARK  200  A    between atoms: _453  and  _454
REMARK  201  A    between atoms: _453  and  _456
REMARK  202  A    between atoms: _456  and  _457
REMARK  203  A    between atoms: _457  and  _458
REMARK  204  A    between atoms: _458  and  _459
REMARK  205  A    between atoms: _459  and  _460
REMARK  206  A    between atoms: _465  and  _466
REMARK  207  A    between atoms: _471  and  _473
REMARK  208  A    between atoms: _473  and  _474
REMARK  209  A    between atoms: _473  and  _476
REMARK  210  A    between atoms: _476  and  _477
REMARK  211  A    between atoms: _477  and  _478
REMARK  212  A    between atoms: _481  and  _483
REMARK  213  A    between atoms: _483  and  _484
REMARK  214  A    between atoms: _483  and  _486
REMARK  215  A    between atoms: _486  and  _487
REMARK  216  A    between atoms: _492  and  _494
REMARK  217  A    between atoms: _494  and  _495
REMARK  218  A    between atoms: _494  and  _497
REMARK  219  A    between atoms: _497  and  _498
REMARK  220  A    between atoms: _501  and  _503
REMARK  221  A    between atoms: _503  and  _504
REMARK  222  A    between atoms: _503  and  _506
REMARK  223  A    between atoms: _506  and  _507
REMARK  224  A    between atoms: _510  and  _512
REMARK  225  A    between atoms: _512  and  _513
REMARK  226  A    between atoms: _512  and  _515
REMARK  227  A    between atoms: _515  and  _516
REMARK  228  A    between atoms: _519  and  _521
REMARK  229  A    between atoms: _521  and  _522
REMARK  230  A    between atoms: _521  and  _524
REMARK  231  A    between atoms: _524  and  _525
REMARK  232  A    between atoms: _525  and  _526
REMARK  233  A    between atoms: _531  and  _533
REMARK  234  A    between atoms: _533  and  _534
REMARK  235  A    between atoms: _533  and  _536
REMARK  236  A    between atoms: _539  and  _541
REMARK  237  A    between atoms: _541  and  _542
REMARK  238  A    between atoms: _541  and  _544
REMARK  239  A    between atoms: _544  and  _545
REMARK  240  A    between atoms: _548  and  _550
REMARK  241  A    between atoms: _550  and  _551
REMARK  242  A    between atoms: _550  and  _553
REMARK  243  A    between atoms: _553  and  _554
REMARK  244  A    between atoms: _557  and  _559
REMARK  245  A    between atoms: _559  and  _560
REMARK  246  A    between atoms: _559  and  _562
REMARK  247  A    between atoms: _562  and  _563
REMARK  248  A    between atoms: _569  and  _571
REMARK  249  A    between atoms: _571  and  _572
REMARK  250  A    between atoms: _574  and  _576
REMARK  251  A    between atoms: _576  and  _577
REMARK  252  A    between atoms: _576  and  _579
REMARK  253  A    between atoms: _579  and  _580
REMARK  254  A    between atoms: _586  and  _588
REMARK  255  A    between atoms: _588  and  _589
REMARK  256  A    between atoms: _592  and  _594
REMARK  257  A    between atoms: _594  and  _595
REMARK  258  A    between atoms: _594  and  _597
REMARK  259  A    between atoms: _599  and  _601
REMARK  260  A    between atoms: _601  and  _602
REMARK  261  A    between atoms: _604  and  _606
REMARK  262  A    between atoms: _606  and  _607
REMARK  263  A    between atoms: _606  and  _609
REMARK  264  A    between atoms: _609  and  _610
REMARK  265  A    between atoms: _616  and  _618
REMARK  266  A    between atoms: _618  and  _619
REMARK  267  A    between atoms: _618  and  _621
REMARK  268  A    between atoms: _621  and  _622
REMARK  269  A    between atoms: _627  and  _628
REMARK                            x       y       z     vdW  Elec       q    Type
REMARK                         _______ _______ _______ _____ _____    ______ ____
ROOT
ATOM      1  O   HOH     1       3.335  16.828  28.547  0.00  0.00    +0.000 OA
ENDROOT
TORSDOF 0
REMARK  Name = ../refined-set-2016/1xh4/1xh4_pocket.pdb
REMARK  269 active torsions:
REMARK  status: ('A' for Active; 'I' for Inactive)
REMARK    1  A    between atoms: _1  and  _3
REMARK    2  A    between atoms: _3  and  _4
REMARK    3  A    between atoms: _3  and  _6
REMARK    4  A    between atoms: _6  and  _7
REMARK    5  A    between atoms: _10  and  _12
REMARK    6  A    between atoms: _12  and  _13
REMARK    7  A    between atoms: _12  and  _15
REMARK    8  A    between atoms: _15  and  _16
REMARK    9  A    between atoms: _19  and  _21
REMARK   10  A    between atoms: _21  and  _22
REMARK   11  A    between atoms: _24  and  _26
REMARK   12  A    between atoms: _26  and  _27
REMARK   13  A    between atoms: _26  and  _29
REMARK   14  A    between atoms: _29  and  _30
REMARK   15  A    between atoms: _33  and  _35
REMARK   16  A    between atoms: _35  and  _36
REMARK   17  A    between atoms: _38  and  _40
REMARK   18  A    between atoms: _40  and  _41
REMARK   19  A    between atoms: _40  and  _43
REMARK   20  A    between atoms: _43  and  _44
REMARK   21  A    between atoms: _46  and  _48
REMARK   22  A    between atoms: _48  and  _49
REMARK   23  A    between atoms: _48  and  _51
REMARK   24  A    between atoms: _51  and  _52
REMARK   25  A    between atoms: _58  and  _60
REMARK   26  A    between atoms: _60  and  _61
REMARK   27  A    between atoms: _63  and  _65
REMARK   28  A    between atoms: _65  and  _66
REMARK   29  A    between atoms: _65  and  _68
REMARK   30  A    between atoms: _68  and  _69
REMARK   31  A    between atoms: _69  and  _70
REMARK   32  A    between atoms: _70  and  _71
REMARK   33  A    between atoms: _80  and  _82
REMARK   34  A    between atoms: _82  and  _83
REMARK   35  A    between atoms: _82  and  _85
REMARK   36  A    between atoms: _88  and  _90
REMARK   37  A    between atoms: _90  and  _91
REMARK   38  A    between atoms: _90  and  _93
REMARK   39  A    between atoms: _93  and  _94
REMARK   40  A    between atoms: _94  and  _95
REMARK   41  A    between atoms: _97  and  _99
REMARK   42  A    between atoms: _99  and  _100
REMARK   43  A    between atoms: _99  and  _102
REMARK   44  A    between atoms: _102  and  _103
REMARK   45  A    between atoms: _106  and  _108
REMARK   46  A    between atoms: _108  and  _109
REMARK   47  A    between atoms: _108  and  _111
REMARK   48  A    between atoms: _111  and  _112
REMARK   49  A    between atoms: _117  and  _118
REMARK   50  A    between atoms: _120  and  _122
REMARK   51  A    between atoms: _122  and  _123
REMARK   52  A    between atoms: _126  and  _128
REMARK   53  A    between atoms: _128  and  _129
REMARK   54  A    between atoms: _128  and  _131
REMARK   55  A    between atoms: _131  and  _132
REMARK   56  A    between atoms: _132  and  _133
REMARK   57  A    between atoms: _135  and  _137
REMARK   58  A    between atoms: _137  and  _138
REMARK   59  A    between atoms: _137  and  _140
REMARK   60  A    between atoms: _140  and  _141
REMARK   61  A    between atoms: _141  and  _142
REMARK   62  A    between atoms: _142  and  _143
REMARK   63  A    between atoms: _143  and  _144
REMARK   64  A    between atoms: _148  and  _150
REMARK   65  A    between atoms: _150  and  _151
REMARK   66  A    between atoms: _150  and  _153
REMARK   67  A    between atoms: _153  and  _154
REMARK   68  A    between atoms: _157  and  _159
REMARK   69  A    between atoms: _159  and  _160
REMARK   70  A    between atoms: _159  and  _162
REMARK   71  A    between atoms: _162  and  _163
REMARK   72  A    between atoms: _166  and  _168
REMARK   73  A    between atoms: _168  and  _169
REMARK   74  A    between atoms: _168  and  _171
REMARK   75  A    between atoms: _171  and  _172
REMARK   76  A    between atoms: _175  and  _177
REMARK   77  A    between atoms: _177  and  _178
REMARK   78  A    between atoms: _177  and  _180
REMARK   79  A    between atoms: _180  and  _181
REMARK   80  A    between atoms: _181  and  _182
REMARK   81  A    between atoms: _182  and  _183
REMARK   82  A    between atoms: _183  and  _184
REMARK   83  A    between atoms: _188  and  _190
REMARK   84  A    between atoms: _190  and  _191
REMARK   85  A    between atoms: _190  and  _193
REMARK   86  A    between atoms: _196  and  _198
REMARK   87  A    between atoms: _198  and  _199
REMARK   88  A    between atoms: _198  and  _201
REMARK   89  A    between atoms: _201  and  _202
REMARK   90  A    between atoms: _205  and  _207
REMARK   91  A    between atoms: _207  and  _208
REMARK   92  A    between atoms: _207  and  _210
REMARK   93  A    between atoms: _210  and  _211
REMARK   94  A    between atoms: _211  and  _212
REMARK   95  A    between atoms: _212  and  _213
REMARK   96  A    between atoms: _213  and  _214
REMARK   97  A    between atoms: _218  and  _220
REMARK   98  A    between atoms: _220  and  _221
REMARK   99  A    between atoms: _220  and  _223
REMARK  100  A    between atoms: _223  and  _224
REMARK  101  A    between atoms: _224  and  _225
REMARK  102  A    between atoms: _230  and  _232
REMARK  103  A    between atoms: _232  and  _233
REMARK  104  A    between atoms: _232  and  _235
REMARK  105  A    between atoms: _235  and  _236
REMARK  106  A    between atoms: _239  and  _241
REMARK  107  A    between atoms: _241  and  _242
REMARK  108  A    between atoms: _241  and  _244
REMARK  109  A    between atoms: _244  and  _245
REMARK  110  A    between atoms: _250  and  _252
REMARK  111  A    between atoms: _252  and  _253
REMARK  112  A    between atoms: _252  and  _255
REMARK  113  A    between atoms: _255  and  _256
REMARK  114  A    between atoms: _259  and  _261
REMARK  115  A    between atoms: _261  and  _262
REMARK  116  A    between atoms: _261  and  _264
REMARK  117  A    between atoms: _264  and  _265
REMARK  118  A    between atoms: _268  and  _270
REMARK  119  A    between atoms: _270  and  _271
REMARK  120  A    between atoms: _270  and  _273
REMARK  121  A    between atoms: _273  and  _274
REMARK  122  A    between atoms: _274  and  _275
REMARK  123  A    between atoms: _278  and  _280
REMARK  124  A    between atoms: _280  and  _281
REMARK  125  A    between atoms: _280  and  _283
REMARK  126  A    between atoms: _283  and  _284
REMARK  127  A    between atoms: _284  and  _285
REMARK  128  A    between atoms: _285  and  _286
REMARK  129  A    between atoms: _286  and  _287
REMARK  130  A    between atoms: _291  and  _293
REMARK  131  A    between atoms: _293  and  _294
REMARK  132  A    between atoms: _293  and  _296
REMARK  133  A    between atoms: _296  and  _297
REMARK  134  A    between atoms: _300  and  _302
REMARK  135  A    between atoms: _302  and  _303
REMARK  136  A    between atoms: _302  and  _305
REMARK  137  A    between atoms: _308  and  _310
REMARK  138  A    between atoms: _310  and  _311
REMARK  139  A    between atoms: _310  and  _313
REMARK  140  A    between atoms: _313  and  _314
REMARK  141  A    between atoms: _314  and  _315
REMARK  142  A    between atoms: _315  and  _316
REMARK  143  A    between atoms: _316  and  _317
REMARK  144  A    between atoms: _321  and  _323
REMARK  145  A    between atoms: _323  and  _324
REMARK  146  A    between atoms: _323  and  _326
REMARK  147  A    between atoms: _326  and  _327
REMARK  148  A    between atoms: _330  and  _332
REMARK  149  A    between atoms: _332  and  _333
REMARK  150  A    between atoms: _332  and  _335
REMARK  151  A    between atoms: _335  and  _336
REMARK  152  A    between atoms: _336  and  _337
REMARK  153  A    between atoms: _339  and  _341
REMARK  154  A    between atoms: _341  and  _342
REMARK  155  A    between atoms: _341  and  _344
REMARK  156  A    between atoms: _344  and  _345
REMARK  157  A    between atoms: _345  and  _346
REMARK  158  A    between atoms: _348  and  _350
REMARK  159  A    between atoms: _350  and  _351
REMARK  160  A    between atoms: _350  and  _353
REMARK  161  A    between atoms: _353  and  _354
REMARK  162  A    between atoms: _354  and  _355
REMARK  163  A    between atoms: _358  and  _360
REMARK  164  A    between atoms: _360  and  _361
REMARK  165  A    between atoms: _360  and  _363
REMARK  166  A    between atoms: _363  and  _364
REMARK  167  A    between atoms: _369  and  _370
REMARK  168  A    between atoms: _372  and  _374
REMARK  169  A    between atoms: _374  and  _375
REMARK  170  A    between atoms: _374  and  _377
REMARK  171  A    between atoms: _381  and  _382
REMARK  172  A    between atoms: _387  and  _389
REMARK  173  A    between atoms: _389  and  _390
REMARK  174  A    between atoms: _392  and  _394
REMARK  175  A    between atoms: _394  and  _395
REMARK  176  A    between atoms: _397  and  _399
REMARK  177  A    between atoms: _399  and  _400
REMARK  178  A    between atoms: _399  and  _402
REMARK  179  A    between atoms: _402  and  _403
REMARK  180  A    between atoms: _403  and  _404
REMARK  181  A    between atoms: _407  and  _409
REMARK  182  A    between atoms: _409  and  _410
REMARK  183  A    between atoms: _409  and  _412
REMARK  184  A    between atoms: _412  and  _413
REMARK  185  A    between atoms: _413  and  _414
REMARK  186  A    between atoms: _416  and  _418
REMARK  187  A    between atoms: _418  and  _419
REMARK  188  A    between atoms: _418  and  _421
REMARK  189  A    between atoms: _421  and  _422
REMARK  190  A    between atoms: _428  and  _430
REMARK  191  A    between atoms: _430  and  _431
REMARK  192  A    between atoms: _430  and  _433
REMARK  193  A    between atoms: _433  and  _434
REMARK  194  A    between atoms: _439  and  _440
REMARK  195  A    between atoms: _442  and  _444
REMARK  196  A    between atoms: _444  and  _445
REMARK  197  A    between atoms: _444  and  _447
REMARK  198  A    between atoms: _447  and  _448
REMARK  199  A    between atoms: _451  and  _453
REMARK  200  A    between atoms: _453  and  _454
REMARK  201  A    between atoms: _453  and  _456
REMARK  202  A    between atoms: _456  and  _457
REMARK  203  A    between atoms: _457  and  _458
REMARK  204  A    between atoms: _458  and  _459
REMARK  205  A    between atoms: _459  and  _460
REMARK  206  A    between atoms: _465  and  _466
REMARK  207  A    between atoms: _471  and  _473
REMARK  208  A    between atoms: _473  and  _474
REMARK  209  A    between atoms: _473  and  _476
REMARK  210  A    between atoms: _476  and  _477
REMARK  211  A    between atoms: _477  and  _478
REMARK  212  A    between atoms: _481  and  _483
REMARK  213  A    between atoms: _483  and  _484
REMARK  214  A    between atoms: _483  and  _486
REMARK  215  A    between atoms: _486  and  _487
REMARK  216  A    between atoms: _492  and  _494
REMARK  217  A    between atoms: _494  and  _495
REMARK  218  A    between atoms: _494  and  _497
REMARK  219  A    between atoms: _497  and  _498
REMARK  220  A    between atoms: _501  and  _503
REMARK  221  A    between atoms: _503  and  _504
REMARK  222  A    between atoms: _503  and  _506
REMARK  223  A    between atoms: _506  and  _507
REMARK  224  A    between atoms: _510  and  _512
REMARK  225  A    between atoms: _512  and  _513
REMARK  226  A    between atoms: _512  and  _515
REMARK  227  A    between atoms: _515  and  _516
REMARK  228  A    between atoms: _519  and  _521
REMARK  229  A    between atoms: _521  and  _522
REMARK  230  A    between atoms: _521  and  _524
REMARK  231  A    between atoms: _524  and  _525
REMARK  232  A    between atoms: _525  and  _526
REMARK  233  A    between atoms: _531  and  _533
REMARK  234  A    between atoms: _533  and  _534
REMARK  235  A    between atoms: _533  and  _536
REMARK  236  A    between atoms: _539  and  _541
REMARK  237  A    between atoms: _541  and  _542
REMARK  238  A    between atoms: _541  and  _544
REMARK  239  A    between atoms: _544  and  _545
REMARK  240  A    between atoms: _548  and  _550
REMARK  241  A    between atoms: _550  and  _551
REMARK  242  A    between atoms: _550  and  _553
REMARK  243  A    between atoms: _553  and  _554
REMARK  244  A    between atoms: _557  and  _559
REMARK  245  A    between atoms: _559  and  _560
REMARK  246  A    between atoms: _559  and  _562
REMARK  247  A    between atoms: _562  and  _563
REMARK  248  A    between atoms: _569  and  _571
REMARK  249  A    between atoms: _571  and  _572
REMARK  250  A    between atoms: _574  and  _576
REMARK  251  A    between atoms: _576  and  _577
REMARK  252  A    between atoms: _576  and  _579
REMARK  253  A    between atoms: _579  and  _580
REMARK  254  A    between atoms: _586  and  _588
REMARK  255  A    between atoms: _588  and  _589
REMARK  256  A    between atoms: _592  and  _594
REMARK  257  A    between atoms: _594  and  _595
REMARK  258  A    between atoms: _594  and  _597
REMARK  259  A    between atoms: _599  and  _601
REMARK  260  A    between atoms: _601  and  _602
REMARK  261  A    between atoms: _604  and  _606
REMARK  262  A    between atoms: _606  and  _607
REMARK  263  A    between atoms: _606  and  _609
REMARK  264  A    between atoms: _609  and  _610
REMARK  265  A    between atoms: _616  and  _618
REMARK  266  A    between atoms: _618  and  _619
REMARK  267  A    between atoms: _618  and  _621
REMARK  268  A    between atoms: _621  and  _622
REMARK  269  A    between atoms: _627  and  _628
REMARK                            x       y       z     vdW  Elec       q    Type
REMARK                         _______ _______ _______ _____ _____    ______ ____
ROOT
ATOM      1  O   HOH     1       9.479  30.679  26.714  0.00  0.00    +0.000 OA
ENDROOT
TORSDOF 0
REMARK  Name = ../refined-set-2016/1xh4/1xh4_pocket.pdb
REMARK  269 active torsions:
REMARK  status: ('A' for Active; 'I' for Inactive)
REMARK    1  A    between atoms: _1  and  _3
REMARK    2  A    between atoms: _3  and  _4
REMARK    3  A    between atoms: _3  and  _6
REMARK    4  A    between atoms: _6  and  _7
REMARK    5  A    between atoms: _10  and  _12
REMARK    6  A    between atoms: _12  and  _13
REMARK    7  A    between atoms: _12  and  _15
REMARK    8  A    between atoms: _15  and  _16
REMARK    9  A    between atoms: _19  and  _21
REMARK   10  A    between atoms: _21  and  _22
REMARK   11  A    between atoms: _24  and  _26
REMARK   12  A    between atoms: _26  and  _27
REMARK   13  A    between atoms: _26  and  _29
REMARK   14  A    between atoms: _29  and  _30
REMARK   15  A    between atoms: _33  and  _35
REMARK   16  A    between atoms: _35  and  _36
REMARK   17  A    between atoms: _38  and  _40
REMARK   18  A    between atoms: _40  and  _41
REMARK   19  A    between atoms: _40  and  _43
REMARK   20  A    between atoms: _43  and  _44
REMARK   21  A    between atoms: _46  and  _48
REMARK   22  A    between atoms: _48  and  _49
REMARK   23  A    between atoms: _48  and  _51
REMARK   24  A    between atoms: _51  and  _52
REMARK   25  A    between atoms: _58  and  _60
REMARK   26  A    between atoms: _60  and  _61
REMARK   27  A    between atoms: _63  and  _65
REMARK   28  A    between atoms: _65  and  _66
REMARK   29  A    between atoms: _65  and  _68
REMARK   30  A    between atoms: _68  and  _69
REMARK   31  A    between atoms: _69  and  _70
REMARK   32  A    between atoms: _70  and  _71
REMARK   33  A    between atoms: _80  and  _82
REMARK   34  A    between atoms: _82  and  _83
REMARK   35  A    between atoms: _82  and  _85
REMARK   36  A    between atoms: _88  and  _90
REMARK   37  A    between atoms: _90  and  _91
REMARK   38  A    between atoms: _90  and  _93
REMARK   39  A    between atoms: _93  and  _94
REMARK   40  A    between atoms: _94  and  _95
REMARK   41  A    between atoms: _97  and  _99
REMARK   42  A    between atoms: _99  and  _100
REMARK   43  A    between atoms: _99  and  _102
REMARK   44  A    between atoms: _102  and  _103
REMARK   45  A    between atoms: _106  and  _108
REMARK   46  A    between atoms: _108  and  _109
REMARK   47  A    between atoms: _108  and  _111
REMARK   48  A    between atoms: _111  and  _112
REMARK   49  A    between atoms: _117  and  _118
REMARK   50  A    between atoms: _120  and  _122
REMARK   51  A    between atoms: _122  and  _123
REMARK   52  A    between atoms: _126  and  _128
REMARK   53  A    between atoms: _128  and  _129
REMARK   54  A    between atoms: _128  and  _131
REMARK   55  A    between atoms: _131  and  _132
REMARK   56  A    between atoms: _132  and  _133
REMARK   57  A    between atoms: _135  and  _137
REMARK   58  A    between atoms: _137  and  _138
REMARK   59  A    between atoms: _137  and  _140
REMARK   60  A    between atoms: _140  and  _141
REMARK   61  A    between atoms: _141  and  _142
REMARK   62  A    between atoms: _142  and  _143
REMARK   63  A    between atoms: _143  and  _144
REMARK   64  A    between atoms: _148  and  _150
REMARK   65  A    between atoms: _150  and  _151
REMARK   66  A    between atoms: _150  and  _153
REMARK   67  A    between atoms: _153  and  _154
REMARK   68  A    between atoms: _157  and  _159
REMARK   69  A    between atoms: _159  and  _160
REMARK   70  A    between atoms: _159  and  _162
REMARK   71  A    between atoms: _162  and  _163
REMARK   72  A    between atoms: _166  and  _168
REMARK   73  A    between atoms: _168  and  _169
REMARK   74  A    between atoms: _168  and  _171
REMARK   75  A    between atoms: _171  and  _172
REMARK   76  A    between atoms: _175  and  _177
REMARK   77  A    between atoms: _177  and  _178
REMARK   78  A    between atoms: _177  and  _180
REMARK   79  A    between atoms: _180  and  _181
REMARK   80  A    between atoms: _181  and  _182
REMARK   81  A    between atoms: _182  and  _183
REMARK   82  A    between atoms: _183  and  _184
REMARK   83  A    between atoms: _188  and  _190
REMARK   84  A    between atoms: _190  and  _191
REMARK   85  A    between atoms: _190  and  _193
REMARK   86  A    between atoms: _196  and  _198
REMARK   87  A    between atoms: _198  and  _199
REMARK   88  A    between atoms: _198  and  _201
REMARK   89  A    between atoms: _201  and  _202
REMARK   90  A    between atoms: _205  and  _207
REMARK   91  A    between atoms: _207  and  _208
REMARK   92  A    between atoms: _207  and  _210
REMARK   93  A    between atoms: _210  and  _211
REMARK   94  A    between atoms: _211  and  _212
REMARK   95  A    between atoms: _212  and  _213
REMARK   96  A    between atoms: _213  and  _214
REMARK   97  A    between atoms: _218  and  _220
REMARK   98  A    between atoms: _220  and  _221
REMARK   99  A    between atoms: _220  and  _223
REMARK  100  A    between atoms: _223  and  _224
REMARK  101  A    between atoms: _224  and  _225
REMARK  102  A    between atoms: _230  and  _232
REMARK  103  A    between atoms: _232  and  _233
REMARK  104  A    between atoms: _232  and  _235
REMARK  105  A    between atoms: _235  and  _236
REMARK  106  A    between atoms: _239  and  _241
REMARK  107  A    between atoms: _241  and  _242
REMARK  108  A    between atoms: _241  and  _244
REMARK  109  A    between atoms: _244  and  _245
REMARK  110  A    between atoms: _250  and  _252
REMARK  111  A    between atoms: _252  and  _253
REMARK  112  A    between atoms: _252  and  _255
REMARK  113  A    between atoms: _255  and  _256
REMARK  114  A    between atoms: _259  and  _261
REMARK  115  A    between atoms: _261  and  _262
REMARK  116  A    between atoms: _261  and  _264
REMARK  117  A    between atoms: _264  and  _265
REMARK  118  A    between atoms: _268  and  _270
REMARK  119  A    between atoms: _270  and  _271
REMARK  120  A    between atoms: _270  and  _273
REMARK  121  A    between atoms: _273  and  _274
REMARK  122  A    between atoms: _274  and  _275
REMARK  123  A    between atoms: _278  and  _280
REMARK  124  A    between atoms: _280  and  _281
REMARK  125  A    between atoms: _280  and  _283
REMARK  126  A    between atoms: _283  and  _284
REMARK  127  A    between atoms: _284  and  _285
REMARK  128  A    between atoms: _285  and  _286
REMARK  129  A    between atoms: _286  and  _287
REMARK  130  A    between atoms: _291  and  _293
REMARK  131  A    between atoms: _293  and  _294
REMARK  132  A    between atoms: _293  and  _296
REMARK  133  A    between atoms: _296  and  _297
REMARK  134  A    between atoms: _300  and  _302
REMARK  135  A    between atoms: _302  and  _303
REMARK  136  A    between atoms: _302  and  _305
REMARK  137  A    between atoms: _308  and  _310
REMARK  138  A    between atoms: _310  and  _311
REMARK  139  A    between atoms: _310  and  _313
REMARK  140  A    between atoms: _313  and  _314
REMARK  141  A    between atoms: _314  and  _315
REMARK  142  A    between atoms: _315  and  _316
REMARK  143  A    between atoms: _316  and  _317
REMARK  144  A    between atoms: _321  and  _323
REMARK  145  A    between atoms: _323  and  _324
REMARK  146  A    between atoms: _323  and  _326
REMARK  147  A    between atoms: _326  and  _327
REMARK  148  A    between atoms: _330  and  _332
REMARK  149  A    between atoms: _332  and  _333
REMARK  150  A    between atoms: _332  and  _335
REMARK  151  A    between atoms: _335  and  _336
REMARK  152  A    between atoms: _336  and  _337
REMARK  153  A    between atoms: _339  and  _341
REMARK  154  A    between atoms: _341  and  _342
REMARK  155  A    between atoms: _341  and  _344
REMARK  156  A    between atoms: _344  and  _345
REMARK  157  A    between atoms: _345  and  _346
REMARK  158  A    between atoms: _348  and  _350
REMARK  159  A    between atoms: _350  and  _351
REMARK  160  A    between atoms: _350  and  _353
REMARK  161  A    between atoms: _353  and  _354
REMARK  162  A    between atoms: _354  and  _355
REMARK  163  A    between atoms: _358  and  _360
REMARK  164  A    between atoms: _360  and  _361
REMARK  165  A    between atoms: _360  and  _363
REMARK  166  A    between atoms: _363  and  _364
REMARK  167  A    between atoms: _369  and  _370
REMARK  168  A    between atoms: _372  and  _374
REMARK  169  A    between atoms: _374  and  _375
REMARK  170  A    between atoms: _374  and  _377
REMARK  171  A    between atoms: _381  and  _382
REMARK  172  A    between atoms: _387  and  _389
REMARK  173  A    between atoms: _389  and  _390
REMARK  174  A    between atoms: _392  and  _394
REMARK  175  A    between atoms: _394  and  _395
REMARK  176  A    between atoms: _397  and  _399
REMARK  177  A    between atoms: _399  and  _400
REMARK  178  A    between atoms: _399  and  _402
REMARK  179  A    between atoms: _402  and  _403
REMARK  180  A    between atoms: _403  and  _404
REMARK  181  A    between atoms: _407  and  _409
REMARK  182  A    between atoms: _409  and  _410
REMARK  183  A    between atoms: _409  and  _412
REMARK  184  A    between atoms: _412  and  _413
REMARK  185  A    between atoms: _413  and  _414
REMARK  186  A    between atoms: _416  and  _418
REMARK  187  A    between atoms: _418  and  _419
REMARK  188  A    between atoms: _418  and  _421
REMARK  189  A    between atoms: _421  and  _422
REMARK  190  A    between atoms: _428  and  _430
REMARK  191  A    between atoms: _430  and  _431
REMARK  192  A    between atoms: _430  and  _433
REMARK  193  A    between atoms: _433  and  _434
REMARK  194  A    between atoms: _439  and  _440
REMARK  195  A    between atoms: _442  and  _444
REMARK  196  A    between atoms: _444  and  _445
REMARK  197  A    between atoms: _444  and  _447
REMARK  198  A    between atoms: _447  and  _448
REMARK  199  A    between atoms: _451  and  _453
REMARK  200  A    between atoms: _453  and  _454
REMARK  201  A    between atoms: _453  and  _456
REMARK  202  A    between atoms: _456  and  _457
REMARK  203  A    between atoms: _457  and  _458
REMARK  204  A    between atoms: _458  and  _459
REMARK  205  A    between atoms: _459  and  _460
REMARK  206  A    between atoms: _465  and  _466
REMARK  207  A    between atoms: _471  and  _473
REMARK  208  A    between atoms: _473  and  _474
REMARK  209  A    between atoms: _473  and  _476
REMARK  210  A    between atoms: _476  and  _477
REMARK  211  A    between atoms: _477  and  _478
REMARK  212  A    between atoms: _481  and  _483
REMARK  213  A    between atoms: _483  and  _484
REMARK  214  A    between atoms: _483  and  _486
REMARK  215  A    between atoms: _486  and  _487
REMARK  216  A    between atoms: _492  and  _494
REMARK  217  A    between atoms: _494  and  _495
REMARK  218  A    between atoms: _494  and  _497
REMARK  219  A    between atoms: _497  and  _498
REMARK  220  A    between atoms: _501  and  _503
REMARK  221  A    between atoms: _503  and  _504
REMARK  222  A    between atoms: _503  and  _506
REMARK  223  A    between atoms: _506  and  _507
REMARK  224  A    between atoms: _510  and  _512
REMARK  225  A    between atoms: _512  and  _513
REMARK  226  A    between atoms: _512  and  _515
REMARK  227  A    between atoms: _515  and  _516
REMARK  228  A    between atoms: _519  and  _521
REMARK  229  A    between atoms: _521  and  _522
REMARK  230  A    between atoms: _521  and  _524
REMARK  231  A    between atoms: _524  and  _525
REMARK  232  A    between atoms: _525  and  _526
REMARK  233  A    between atoms: _531  and  _533
REMARK  234  A    between atoms: _533  and  _534
REMARK  235  A    between atoms: _533  and  _536
REMARK  236  A    between atoms: _539  and  _541
REMARK  237  A    between atoms: _541  and  _542
REMARK  238  A    between atoms: _541  and  _544
REMARK  239  A    between atoms: _544  and  _545
REMARK  240  A    between atoms: _548  and  _550
REMARK  241  A    between atoms: _550  and  _551
REMARK  242  A    between atoms: _550  and  _553
REMARK  243  A    between atoms: _553  and  _554
REMARK  244  A    between atoms: _557  and  _559
REMARK  245  A    between atoms: _559  and  _560
REMARK  246  A    between atoms: _559  and  _562
REMARK  247  A    between atoms: _562  and  _563
REMARK  248  A    between atoms: _569  and  _571
REMARK  249  A    between atoms: _571  and  _572
REMARK  250  A    between atoms: _574  and  _576
REMARK  251  A    between atoms: _576  and  _577
REMARK  252  A    between atoms: _576  and  _579
REMARK  253  A    between atoms: _579  and  _580
REMARK  254  A    between atoms: _586  and  _588
REMARK  255  A    between atoms: _588  and  _589
REMARK  256  A    between atoms: _592  and  _594
REMARK  257  A    between atoms: _594  and  _595
REMARK  258  A    between atoms: _594  and  _597
REMARK  259  A    between atoms: _599  and  _601
REMARK  260  A    between atoms: _601  and  _602
REMARK  261  A    between atoms: _604  and  _606
REMARK  262  A    between atoms: _606  and  _607
REMARK  263  A    between atoms: _606  and  _609
REMARK  264  A    between atoms: _609  and  _610
REMARK  265  A    between atoms: _616  and  _618
REMARK  266  A    between atoms: _618  and  _619
REMARK  267  A    between atoms: _618  and  _621
REMARK  268  A    between atoms: _621  and  _622
REMARK  269  A    between atoms: _627  and  _628
REMARK                            x       y       z     vdW  Elec       q    Type
REMARK                         _______ _______ _______ _____ _____    ______ ____
ROOT
ATOM      1  O   HOH     1       3.619   8.224  27.239  0.00  0.00    +0.000 OA
ENDROOT
TORSDOF 0
REMARK  Name = ../refined-set-2016/1xh4/1xh4_pocket.pdb
REMARK  269 active torsions:
REMARK  status: ('A' for Active; 'I' for Inactive)
REMARK    1  A    between atoms: _1  and  _3
REMARK    2  A    between atoms: _3  and  _4
REMARK    3  A    between atoms: _3  and  _6
REMARK    4  A    between atoms: _6  and  _7
REMARK    5  A    between atoms: _10  and  _12
REMARK    6  A    between atoms: _12  and  _13
REMARK    7  A    between atoms: _12  and  _15
REMARK    8  A    between atoms: _15  and  _16
REMARK    9  A    between atoms: _19  and  _21
REMARK   10  A    between atoms: _21  and  _22
REMARK   11  A    between atoms: _24  and  _26
REMARK   12  A    between atoms: _26  and  _27
REMARK   13  A    between atoms: _26  and  _29
REMARK   14  A    between atoms: _29  and  _30
REMARK   15  A    between atoms: _33  and  _35
REMARK   16  A    between atoms: _35  and  _36
REMARK   17  A    between atoms: _38  and  _40
REMARK   18  A    between atoms: _40  and  _41
REMARK   19  A    between atoms: _40  and  _43
REMARK   20  A    between atoms: _43  and  _44
REMARK   21  A    between atoms: _46  and  _48
REMARK   22  A    between atoms: _48  and  _49
REMARK   23  A    between atoms: _48  and  _51
REMARK   24  A    between atoms: _51  and  _52
REMARK   25  A    between atoms: _58  and  _60
REMARK   26  A    between atoms: _60  and  _61
REMARK   27  A    between atoms: _63  and  _65
REMARK   28  A    between atoms: _65  and  _66
REMARK   29  A    between atoms: _65  and  _68
REMARK   30  A    between atoms: _68  and  _69
REMARK   31  A    between atoms: _69  and  _70
REMARK   32  A    between atoms: _70  and  _71
REMARK   33  A    between atoms: _80  and  _82
REMARK   34  A    between atoms: _82  and  _83
REMARK   35  A    between atoms: _82  and  _85
REMARK   36  A    between atoms: _88  and  _90
REMARK   37  A    between atoms: _90  and  _91
REMARK   38  A    between atoms: _90  and  _93
REMARK   39  A    between atoms: _93  and  _94
REMARK   40  A    between atoms: _94  and  _95
REMARK   41  A    between atoms: _97  and  _99
REMARK   42  A    between atoms: _99  and  _100
REMARK   43  A    between atoms: _99  and  _102
REMARK   44  A    between atoms: _102  and  _103
REMARK   45  A    between atoms: _106  and  _108
REMARK   46  A    between atoms: _108  and  _109
REMARK   47  A    between atoms: _108  and  _111
REMARK   48  A    between atoms: _111  and  _112
REMARK   49  A    between atoms: _117  and  _118
REMARK   50  A    between atoms: _120  and  _122
REMARK   51  A    between atoms: _122  and  _123
REMARK   52  A    between atoms: _126  and  _128
REMARK   53  A    between atoms: _128  and  _129
REMARK   54  A    between atoms: _128  and  _131
REMARK   55  A    between atoms: _131  and  _132
REMARK   56  A    between atoms: _132  and  _133
REMARK   57  A    between atoms: _135  and  _137
REMARK   58  A    between atoms: _137  and  _138
REMARK   59  A    between atoms: _137  and  _140
REMARK   60  A    between atoms: _140  and  _141
REMARK   61  A    between atoms: _141  and  _142
REMARK   62  A    between atoms: _142  and  _143
REMARK   63  A    between atoms: _143  and  _144
REMARK   64  A    between atoms: _148  and  _150
REMARK   65  A    between atoms: _150  and  _151
REMARK   66  A    between atoms: _150  and  _153
REMARK   67  A    between atoms: _153  and  _154
REMARK   68  A    between atoms: _157  and  _159
REMARK   69  A    between atoms: _159  and  _160
REMARK   70  A    between atoms: _159  and  _162
REMARK   71  A    between atoms: _162  and  _163
REMARK   72  A    between atoms: _166  and  _168
REMARK   73  A    between atoms: _168  and  _169
REMARK   74  A    between atoms: _168  and  _171
REMARK   75  A    between atoms: _171  and  _172
REMARK   76  A    between atoms: _175  and  _177
REMARK   77  A    between atoms: _177  and  _178
REMARK   78  A    between atoms: _177  and  _180
REMARK   79  A    between atoms: _180  and  _181
REMARK   80  A    between atoms: _181  and  _182
REMARK   81  A    between atoms: _182  and  _183
REMARK   82  A    between atoms: _183  and  _184
REMARK   83  A    between atoms: _188  and  _190
REMARK   84  A    between atoms: _190  and  _191
REMARK   85  A    between atoms: _190  and  _193
REMARK   86  A    between atoms: _196  and  _198
REMARK   87  A    between atoms: _198  and  _199
REMARK   88  A    between atoms: _198  and  _201
REMARK   89  A    between atoms: _201  and  _202
REMARK   90  A    between atoms: _205  and  _207
REMARK   91  A    between atoms: _207  and  _208
REMARK   92  A    between atoms: _207  and  _210
REMARK   93  A    between atoms: _210  and  _211
REMARK   94  A    between atoms: _211  and  _212
REMARK   95  A    between atoms: _212  and  _213
REMARK   96  A    between atoms: _213  and  _214
REMARK   97  A    between atoms: _218  and  _220
REMARK   98  A    between atoms: _220  and  _221
REMARK   99  A    between atoms: _220  and  _223
REMARK  100  A    between atoms: _223  and  _224
REMARK  101  A    between atoms: _224  and  _225
REMARK  102  A    between atoms: _230  and  _232
REMARK  103  A    between atoms: _232  and  _233
REMARK  104  A    between atoms: _232  and  _235
REMARK  105  A    between atoms: _235  and  _236
REMARK  106  A    between atoms: _239  and  _241
REMARK  107  A    between atoms: _241  and  _242
REMARK  108  A    between atoms: _241  and  _244
REMARK  109  A    between atoms: _244  and  _245
REMARK  110  A    between atoms: _250  and  _252
REMARK  111  A    between atoms: _252  and  _253
REMARK  112  A    between atoms: _252  and  _255
REMARK  113  A    between atoms: _255  and  _256
REMARK  114  A    between atoms: _259  and  _261
REMARK  115  A    between atoms: _261  and  _262
REMARK  116  A    between atoms: _261  and  _264
REMARK  117  A    between atoms: _264  and  _265
REMARK  118  A    between atoms: _268  and  _270
REMARK  119  A    between atoms: _270  and  _271
REMARK  120  A    between atoms: _270  and  _273
REMARK  121  A    between atoms: _273  and  _274
REMARK  122  A    between atoms: _274  and  _275
REMARK  123  A    between atoms: _278  and  _280
REMARK  124  A    between atoms: _280  and  _281
REMARK  125  A    between atoms: _280  and  _283
REMARK  126  A    between atoms: _283  and  _284
REMARK  127  A    between atoms: _284  and  _285
REMARK  128  A    between atoms: _285  and  _286
REMARK  129  A    between atoms: _286  and  _287
REMARK  130  A    between atoms: _291  and  _293
REMARK  131  A    between atoms: _293  and  _294
REMARK  132  A    between atoms: _293  and  _296
REMARK  133  A    between atoms: _296  and  _297
REMARK  134  A    between atoms: _300  and  _302
REMARK  135  A    between atoms: _302  and  _303
REMARK  136  A    between atoms: _302  and  _305
REMARK  137  A    between atoms: _308  and  _310
REMARK  138  A    between atoms: _310  and  _311
REMARK  139  A    between atoms: _310  and  _313
REMARK  140  A    between atoms: _313  and  _314
REMARK  141  A    between atoms: _314  and  _315
REMARK  142  A    between atoms: _315  and  _316
REMARK  143  A    between atoms: _316  and  _317
REMARK  144  A    between atoms: _321  and  _323
REMARK  145  A    between atoms: _323  and  _324
REMARK  146  A    between atoms: _323  and  _326
REMARK  147  A    between atoms: _326  and  _327
REMARK  148  A    between atoms: _330  and  _332
REMARK  149  A    between atoms: _332  and  _333
REMARK  150  A    between atoms: _332  and  _335
REMARK  151  A    between atoms: _335  and  _336
REMARK  152  A    between atoms: _336  and  _337
REMARK  153  A    between atoms: _339  and  _341
REMARK  154  A    between atoms: _341  and  _342
REMARK  155  A    between atoms: _341  and  _344
REMARK  156  A    between atoms: _344  and  _345
REMARK  157  A    between atoms: _345  and  _346
REMARK  158  A    between atoms: _348  and  _350
REMARK  159  A    between atoms: _350  and  _351
REMARK  160  A    between atoms: _350  and  _353
REMARK  161  A    between atoms: _353  and  _354
REMARK  162  A    between atoms: _354  and  _355
REMARK  163  A    between atoms: _358  and  _360
REMARK  164  A    between atoms: _360  and  _361
REMARK  165  A    between atoms: _360  and  _363
REMARK  166  A    between atoms: _363  and  _364
REMARK  167  A    between atoms: _369  and  _370
REMARK  168  A    between atoms: _372  and  _374
REMARK  169  A    between atoms: _374  and  _375
REMARK  170  A    between atoms: _374  and  _377
REMARK  171  A    between atoms: _381  and  _382
REMARK  172  A    between atoms: _387  and  _389
REMARK  173  A    between atoms: _389  and  _390
REMARK  174  A    between atoms: _392  and  _394
REMARK  175  A    between atoms: _394  and  _395
REMARK  176  A    between atoms: _397  and  _399
REMARK  177  A    between atoms: _399  and  _400
REMARK  178  A    between atoms: _399  and  _402
REMARK  179  A    between atoms: _402  and  _403
REMARK  180  A    between atoms: _403  and  _404
REMARK  181  A    between atoms: _407  and  _409
REMARK  182  A    between atoms: _409  and  _410
REMARK  183  A    between atoms: _409  and  _412
REMARK  184  A    between atoms: _412  and  _413
REMARK  185  A    between atoms: _413  and  _414
REMARK  186  A    between atoms: _416  and  _418
REMARK  187  A    between atoms: _418  and  _419
REMARK  188  A    between atoms: _418  and  _421
REMARK  189  A    between atoms: _421  and  _422
REMARK  190  A    between atoms: _428  and  _430
REMARK  191  A    between atoms: _430  and  _431
REMARK  192  A    between atoms: _430  and  _433
REMARK  193  A    between atoms: _433  and  _434
REMARK  194  A    between atoms: _439  and  _440
REMARK  195  A    between atoms: _442  and  _444
REMARK  196  A    between atoms: _444  and  _445
REMARK  197  A    between atoms: _444  and  _447
REMARK  198  A    between atoms: _447  and  _448
REMARK  199  A    between atoms: _451  and  _453
REMARK  200  A    between atoms: _453  and  _454
REMARK  201  A    between atoms: _453  and  _456
REMARK  202  A    between atoms: _456  and  _457
REMARK  203  A    between atoms: _457  and  _458
REMARK  204  A    between atoms: _458  and  _459
REMARK  205  A    between atoms: _459  and  _460
REMARK  206  A    between atoms: _465  and  _466
REMARK  207  A    between atoms: _471  and  _473
REMARK  208  A    between atoms: _473  and  _474
REMARK  209  A    between atoms: _473  and  _476
REMARK  210  A    between atoms: _476  and  _477
REMARK  211  A    between atoms: _477  and  _478
REMARK  212  A    between atoms: _481  and  _483
REMARK  213  A    between atoms: _483  and  _484
REMARK  214  A    between atoms: _483  and  _486
REMARK  215  A    between atoms: _486  and  _487
REMARK  216  A    between atoms: _492  and  _494
REMARK  217  A    between atoms: _494  and  _495
REMARK  218  A    between atoms: _494  and  _497
REMARK  219  A    between atoms: _497  and  _498
REMARK  220  A    between atoms: _501  and  _503
REMARK  221  A    between atoms: _503  and  _504
REMARK  222  A    between atoms: _503  and  _506
REMARK  223  A    between atoms: _506  and  _507
REMARK  224  A    between atoms: _510  and  _512
REMARK  225  A    between atoms: _512  and  _513
REMARK  226  A    between atoms: _512  and  _515
REMARK  227  A    between atoms: _515  and  _516
REMARK  228  A    between atoms: _519  and  _521
REMARK  229  A    between atoms: _521  and  _522
REMARK  230  A    between atoms: _521  and  _524
REMARK  231  A    between atoms: _524  and  _525
REMARK  232  A    between atoms: _525  and  _526
REMARK  233  A    between atoms: _531  and  _533
REMARK  234  A    between atoms: _533  and  _534
REMARK  235  A    between atoms: _533  and  _536
REMARK  236  A    between atoms: _539  and  _541
REMARK  237  A    between atoms: _541  and  _542
REMARK  238  A    between atoms: _541  and  _544
REMARK  239  A    between atoms: _544  and  _545
REMARK  240  A    between atoms: _548  and  _550
REMARK  241  A    between atoms: _550  and  _551
REMARK  242  A    between atoms: _550  and  _553
REMARK  243  A    between atoms: _553  and  _554
REMARK  244  A    between atoms: _557  and  _559
REMARK  245  A    between atoms: _559  and  _560
REMARK  246  A    between atoms: _559  and  _562
REMARK  247  A    between atoms: _562  and  _563
REMARK  248  A    between atoms: _569  and  _571
REMARK  249  A    between atoms: _571  and  _572
REMARK  250  A    between atoms: _574  and  _576
REMARK  251  A    between atoms: _576  and  _577
REMARK  252  A    between atoms: _576  and  _579
REMARK  253  A    between atoms: _579  and  _580
REMARK  254  A    between atoms: _586  and  _588
REMARK  255  A    between atoms: _588  and  _589
REMARK  256  A    between atoms: _592  and  _594
REMARK  257  A    between atoms: _594  and  _595
REMARK  258  A    between atoms: _594  and  _597
REMARK  259  A    between atoms: _599  and  _601
REMARK  260  A    between atoms: _601  and  _602
REMARK  261  A    between atoms: _604  and  _606
REMARK  262  A    between atoms: _606  and  _607
REMARK  263  A    between atoms: _606  and  _609
REMARK  264  A    between atoms: _609  and  _610
REMARK  265  A    between atoms: _616  and  _618
REMARK  266  A    between atoms: _618  and  _619
REMARK  267  A    between atoms: _618  and  _621
REMARK  268  A    between atoms: _621  and  _622
REMARK  269  A    between atoms: _627  and  _628
REMARK                            x       y       z     vdW  Elec       q    Type
REMARK                         _______ _______ _______ _____ _____    ______ ____
ROOT
ATOM      1  O   HOH     1      11.376  17.216  29.760  0.00  0.00    +0.000 OA
ENDROOT
TORSDOF 0
