REMARK  Name = ../refined-set-2016/4ryd/4ryd_pocket.pdb
REMARK  255 active torsions:
REMARK  status: ('A' for Active; 'I' for Inactive)
REMARK    1  A    between atoms: _1  and  _3
REMARK    2  A    between atoms: _3  and  _4
REMARK    3  A    between atoms: _3  and  _6
REMARK    4  A    between atoms: _6  and  _7
REMARK    5  A    between atoms: _10  and  _12
REMARK    6  A    between atoms: _12  and  _13
REMARK    7  A    between atoms: _12  and  _15
REMARK    8  A    between atoms: _15  and  _16
REMARK    9  A    between atoms: _19  and  _21
REMARK   10  A    between atoms: _21  and  _22
REMARK   11  A    between atoms: _24  and  _26
REMARK   12  A    between atoms: _26  and  _27
REMARK   13  A    between atoms: _26  and  _29
REMARK   14  A    between atoms: _29  and  _30
REMARK   15  A    between atoms: _35  and  _37
REMARK   16  A    between atoms: _37  and  _38
REMARK   17  A    between atoms: _37  and  _40
REMARK   18  A    between atoms: _40  and  _41
REMARK   19  A    between atoms: _41  and  _42
REMARK   20  A    between atoms: _42  and  _43
REMARK   21  A    between atoms: _52  and  _54
REMARK   22  A    between atoms: _54  and  _55
REMARK   23  A    between atoms: _54  and  _57
REMARK   24  A    between atoms: _57  and  _58
REMARK   25  A    between atoms: _61  and  _63
REMARK   26  A    between atoms: _63  and  _64
REMARK   27  A    between atoms: _63  and  _66
REMARK   28  A    between atoms: _66  and  _67
REMARK   29  A    between atoms: _72  and  _74
REMARK   30  A    between atoms: _74  and  _75
REMARK   31  A    between atoms: _74  and  _77
REMARK   32  A    between atoms: _77  and  _78
REMARK   33  A    between atoms: _81  and  _83
REMARK   34  A    between atoms: _83  and  _84
REMARK   35  A    between atoms: _83  and  _86
REMARK   36  A    between atoms: _86  and  _87
REMARK   37  A    between atoms: _92  and  _94
REMARK   38  A    between atoms: _94  and  _95
REMARK   39  A    between atoms: _94  and  _97
REMARK   40  A    between atoms: _97  and  _98
REMARK   41  A    between atoms: _98  and  _99
REMARK   42  A    between atoms: _99  and  _100
REMARK   43  A    between atoms: _109  and  _111
REMARK   44  A    between atoms: _111  and  _112
REMARK   45  A    between atoms: _111  and  _114
REMARK   46  A    between atoms: _114  and  _115
REMARK   47  A    between atoms: _120  and  _122
REMARK   48  A    between atoms: _122  and  _123
REMARK   49  A    between atoms: _125  and  _127
REMARK   50  A    between atoms: _127  and  _128
REMARK   51  A    between atoms: _127  and  _130
REMARK   52  A    between atoms: _130  and  _131
REMARK   53  A    between atoms: _134  and  _136
REMARK   54  A    between atoms: _136  and  _137
REMARK   55  A    between atoms: _136  and  _139
REMARK   56  A    between atoms: _141  and  _143
REMARK   57  A    between atoms: _143  and  _144
REMARK   58  A    between atoms: _143  and  _146
REMARK   59  A    between atoms: _146  and  _147
REMARK   60  A    between atoms: _147  and  _148
REMARK   61  A    between atoms: _148  and  _149
REMARK   62  A    between atoms: _158  and  _160
REMARK   63  A    between atoms: _160  and  _161
REMARK   64  A    between atoms: _160  and  _163
REMARK   65  A    between atoms: _163  and  _164
REMARK   66  A    between atoms: _164  and  _165
REMARK   67  A    between atoms: _167  and  _169
REMARK   68  A    between atoms: _169  and  _170
REMARK   69  A    between atoms: _169  and  _172
REMARK   70  A    between atoms: _172  and  _173
REMARK   71  A    between atoms: _176  and  _178
REMARK   72  A    between atoms: _178  and  _179
REMARK   73  A    between atoms: _178  and  _181
REMARK   74  A    between atoms: _181  and  _182
REMARK   75  A    between atoms: _185  and  _187
REMARK   76  A    between atoms: _187  and  _188
REMARK   77  A    between atoms: _190  and  _192
REMARK   78  A    between atoms: _192  and  _193
REMARK   79  A    between atoms: _192  and  _195
REMARK   80  A    between atoms: _195  and  _196
REMARK   81  A    between atoms: _196  and  _197
REMARK   82  A    between atoms: _200  and  _202
REMARK   83  A    between atoms: _202  and  _203
REMARK   84  A    between atoms: _202  and  _205
REMARK   85  A    between atoms: _208  and  _210
REMARK   86  A    between atoms: _210  and  _211
REMARK   87  A    between atoms: _210  and  _213
REMARK   88  A    between atoms: _213  and  _214
REMARK   89  A    between atoms: _217  and  _219
REMARK   90  A    between atoms: _219  and  _220
REMARK   91  A    between atoms: _219  and  _222
REMARK   92  A    between atoms: _222  and  _223
REMARK   93  A    between atoms: _226  and  _228
REMARK   94  A    between atoms: _228  and  _229
REMARK   95  A    between atoms: _232  and  _234
REMARK   96  A    between atoms: _234  and  _235
REMARK   97  A    between atoms: _234  and  _237
REMARK   98  A    between atoms: _240  and  _242
REMARK   99  A    between atoms: _242  and  _243
REMARK  100  A    between atoms: _242  and  _245
REMARK  101  A    between atoms: _245  and  _246
REMARK  102  A    between atoms: _246  and  _247
REMARK  103  A    between atoms: _250  and  _252
REMARK  104  A    between atoms: _252  and  _253
REMARK  105  A    between atoms: _256  and  _258
REMARK  106  A    between atoms: _258  and  _259
REMARK  107  A    between atoms: _262  and  _264
REMARK  108  A    between atoms: _264  and  _265
REMARK  109  A    between atoms: _264  and  _267
REMARK  110  A    between atoms: _267  and  _268
REMARK  111  A    between atoms: _270  and  _272
REMARK  112  A    between atoms: _272  and  _273
REMARK  113  A    between atoms: _272  and  _275
REMARK  114  A    between atoms: _275  and  _276
REMARK  115  A    between atoms: _286  and  _288
REMARK  116  A    between atoms: _288  and  _289
REMARK  117  A    between atoms: _292  and  _293
REMARK  118  A    between atoms: _298  and  _300
REMARK  119  A    between atoms: _300  and  _301
REMARK  120  A    between atoms: _300  and  _303
REMARK  121  A    between atoms: _303  and  _304
REMARK  122  A    between atoms: _304  and  _305
REMARK  123  A    between atoms: _308  and  _310
REMARK  124  A    between atoms: _310  and  _311
REMARK  125  A    between atoms: _310  and  _313
REMARK  126  A    between atoms: _313  and  _314
REMARK  127  A    between atoms: _317  and  _319
REMARK  128  A    between atoms: _319  and  _320
REMARK  129  A    between atoms: _319  and  _322
REMARK  130  A    between atoms: _322  and  _323
REMARK  131  A    between atoms: _326  and  _328
REMARK  132  A    between atoms: _328  and  _329
REMARK  133  A    between atoms: _328  and  _331
REMARK  134  A    between atoms: _331  and  _332
REMARK  135  A    between atoms: _335  and  _337
REMARK  136  A    between atoms: _337  and  _338
REMARK  137  A    between atoms: _337  and  _340
REMARK  138  A    between atoms: _343  and  _345
REMARK  139  A    between atoms: _345  and  _346
REMARK  140  A    between atoms: _345  and  _348
REMARK  141  A    between atoms: _348  and  _349
REMARK  142  A    between atoms: _352  and  _354
REMARK  143  A    between atoms: _354  and  _355
REMARK  144  A    between atoms: _358  and  _359
REMARK  145  A    between atoms: _364  and  _366
REMARK  146  A    between atoms: _366  and  _367
REMARK  147  A    between atoms: _370  and  _372
REMARK  148  A    between atoms: _372  and  _373
REMARK  149  A    between atoms: _372  and  _375
REMARK  150  A    between atoms: _375  and  _376
REMARK  151  A    between atoms: _376  and  _377
REMARK  152  A    between atoms: _377  and  _378
REMARK  153  A    between atoms: _387  and  _389
REMARK  154  A    between atoms: _389  and  _390
REMARK  155  A    between atoms: _389  and  _392
REMARK  156  A    between atoms: _392  and  _393
REMARK  157  A    between atoms: _396  and  _398
REMARK  158  A    between atoms: _398  and  _399
REMARK  159  A    between atoms: _402  and  _404
REMARK  160  A    between atoms: _404  and  _405
REMARK  161  A    between atoms: _404  and  _407
REMARK  162  A    between atoms: _407  and  _408
REMARK  163  A    between atoms: _408  and  _409
REMARK  164  A    between atoms: _412  and  _414
REMARK  165  A    between atoms: _414  and  _415
REMARK  166  A    between atoms: _414  and  _417
REMARK  167  A    between atoms: _417  and  _418
REMARK  168  A    between atoms: _428  and  _430
REMARK  169  A    between atoms: _430  and  _431
REMARK  170  A    between atoms: _434  and  _436
REMARK  171  A    between atoms: _436  and  _437
REMARK  172  A    between atoms: _436  and  _439
REMARK  173  A    between atoms: _439  and  _440
REMARK  174  A    between atoms: _442  and  _444
REMARK  175  A    between atoms: _444  and  _445
REMARK  176  A    between atoms: _447  and  _449
REMARK  177  A    between atoms: _449  and  _450
REMARK  178  A    between atoms: _449  and  _452
REMARK  179  A    between atoms: _452  and  _453
REMARK  180  A    between atoms: _458  and  _460
REMARK  181  A    between atoms: _460  and  _461
REMARK  182  A    between atoms: _463  and  _465
REMARK  183  A    between atoms: _465  and  _466
REMARK  184  A    between atoms: _465  and  _468
REMARK  185  A    between atoms: _468  and  _469
REMARK  186  A    between atoms: _469  and  _471
REMARK  187  A    between atoms: _471  and  CA_629
REMARK  188  A    between atoms: _472  and  _474
REMARK  189  A    between atoms: _474  and  _475
REMARK  190  A    between atoms: _474  and  _477
REMARK  191  A    between atoms: _477  and  _478
REMARK  192  A    between atoms: _480  and  _482
REMARK  193  A    between atoms: _482  and  _483
REMARK  194  A    between atoms: _482  and  _485
REMARK  195  A    between atoms: _487  and  _489
REMARK  196  A    between atoms: _489  and  _490
REMARK  197  A    between atoms: _489  and  _492
REMARK  198  A    between atoms: _494  and  _496
REMARK  199  A    between atoms: _496  and  _497
REMARK  200  A    between atoms: _496  and  _499
REMARK  201  A    between atoms: _499  and  _500
REMARK  202  A    between atoms: _503  and  _505
REMARK  203  A    between atoms: _505  and  _506
REMARK  204  A    between atoms: _508  and  _510
REMARK  205  A    between atoms: _510  and  _511
REMARK  206  A    between atoms: _510  and  _513
REMARK  207  A    between atoms: _513  and  _514
REMARK  208  A    between atoms: _519  and  _520
REMARK  209  A    between atoms: _522  and  _524
REMARK  210  A    between atoms: _524  and  _525
REMARK  211  A    between atoms: _524  and  _527
REMARK  212  A    between atoms: _527  and  _528
REMARK  213  A    between atoms: _531  and  _533
REMARK  214  A    between atoms: _533  and  _534
REMARK  215  A    between atoms: _533  and  _536
REMARK  216  A    between atoms: _536  and  _537
REMARK  217  A    between atoms: _542  and  _544
REMARK  218  A    between atoms: _544  and  _545
REMARK  219  A    between atoms: _544  and  _547
REMARK  220  A    between atoms: _547  and  _548
REMARK  221  A    between atoms: _551  and  _553
REMARK  222  A    between atoms: _553  and  _554
REMARK  223  A    between atoms: _553  and  _556
REMARK  224  A    between atoms: _556  and  _557
REMARK  225  A    between atoms: _559  and  _561
REMARK  226  A    between atoms: _561  and  _562
REMARK  227  A    between atoms: _561  and  _564
REMARK  228  A    between atoms: _564  and  _565
REMARK  229  A    between atoms: _568  and  _570
REMARK  230  A    between atoms: _570  and  _571
REMARK  231  A    between atoms: _570  and  _573
REMARK  232  A    between atoms: _573  and  _574
REMARK  233  A    between atoms: _574  and  _575
REMARK  234  A    between atoms: _578  and  _580
REMARK  235  A    between atoms: _580  and  _581
REMARK  236  A    between atoms: _580  and  _583
REMARK  237  A    between atoms: _583  and  _584
REMARK  238  A    between atoms: _587  and  _589
REMARK  239  A    between atoms: _589  and  _590
REMARK  240  A    between atoms: _592  and  _594
REMARK  241  A    between atoms: _594  and  _595
REMARK  242  A    between atoms: _594  and  _597
REMARK  243  A    between atoms: _597  and  _598
REMARK  244  A    between atoms: _601  and  _603
REMARK  245  A    between atoms: _603  and  _604
REMARK  246  A    between atoms: _603  and  _606
REMARK  247  A    between atoms: _606  and  _607
REMARK  248  A    between atoms: _609  and  _611
REMARK  249  A    between atoms: _611  and  _612
REMARK  250  A    between atoms: _615  and  _617
REMARK  251  A    between atoms: _617  and  _618
REMARK  252  A    between atoms: _617  and  _620
REMARK  253  A    between atoms: _620  and  _621
REMARK  254  A    between atoms: _623  and  _625
REMARK  255  A    between atoms: _625  and  _626
REMARK                            x       y       z     vdW  Elec       q    Type
REMARK                         _______ _______ _______ _____ _____    ______ ____
ROOT
ATOM      1  CA  ASP A   2      30.259  36.309   1.277  0.00  0.00    +0.160 C 
ENDROOT
BRANCH   1   4
ATOM      2  C   ASP A   1      29.487  34.170   2.164  0.00  0.00    +0.239 C 
ATOM      3  O   ASP A   1      30.643  33.740   2.262  0.00  0.00    -0.274 OA
ATOM      4  N   ASP A   2      29.204  35.398   1.722  0.00  0.00    -0.297 N 
ATOM      5  H   ASP A   2      28.213  35.713   1.693  0.00  0.00    +0.150 HD
BRANCH   2   6
ATOM      6  CA  ASP A   1      28.302  33.290   2.570  0.00  0.00    +0.156 C 
BRANCH   6   7
ATOM      7  N   ASP A   1      28.544  32.518   3.775  0.00  0.00    -0.238 NA
ATOM      8  H   ASP A   1      29.263  32.832   4.457  0.00  0.00    +0.142 HD
ENDBRANCH   6   7
BRANCH   6   9
ATOM      9  CB  ASP A   1      27.048  34.144   2.806  0.00  0.00    +0.140 C 
BRANCH   9  10
ATOM     10  CG  ASP A   1      26.249  34.375   1.544  0.00  0.00    +0.367 C 
ATOM     11  OD2 ASP A   1      25.322  33.584   1.297  0.00  0.00    -0.246 OA
ATOM     12  OD1 ASP A   1      26.546  35.330   0.795  0.00  0.00    -0.246 OA
ENDBRANCH   9  10
ENDBRANCH   6   9
ENDBRANCH   2   6
ENDBRANCH   1   4
BRANCH   1  13
ATOM     13  C   ASP A   2      30.689  37.314   2.334  0.00  0.00    +0.241 C 
ATOM     14  N   GLY A   3      30.324  37.046   3.578  0.00  0.00    -0.296 N 
ATOM     15  H   GLY A   3      29.773  36.188   3.782  0.00  0.00    +0.150 HD
ATOM     16  O   ASP A   2      31.342  38.305   2.033  0.00  0.00    -0.273 OA
BRANCH  14  17
ATOM     17  CA  GLY A   3      30.687  37.941   4.656  0.00  0.00    +0.163 C 
BRANCH  17  18
ATOM     18  C   GLY A   3      29.463  38.488   5.369  0.00  0.00    +0.229 C 
ATOM     19  O   GLY A   3      28.326  38.323   4.904  0.00  0.00    -0.286 OA
ENDBRANCH  17  18
ENDBRANCH  14  17
ENDBRANCH   1  13
BRANCH   1  20
ATOM     20  CB  ASP A   2      29.849  37.060  -0.012  0.00  0.00    +0.143 C 
BRANCH  20  21
ATOM     21  CG  ASP A   2      28.592  37.917   0.163  0.00  0.00    +0.367 C 
ATOM     22  OD2 ASP A   2      28.199  38.186   1.318  0.00  0.00    -0.246 OA
ATOM     23  OD1 ASP A   2      28.001  38.333  -0.866  0.00  0.00    -0.246 OA
ENDBRANCH  20  21
ENDBRANCH   1  20
TORSDOF 10
REMARK  Name = ../refined-set-2016/4ryd/4ryd_pocket.pdb
REMARK  255 active torsions:
REMARK  status: ('A' for Active; 'I' for Inactive)
REMARK    1  A    between atoms: _1  and  _3
REMARK    2  A    between atoms: _3  and  _4
REMARK    3  A    between atoms: _3  and  _6
REMARK    4  A    between atoms: _6  and  _7
REMARK    5  A    between atoms: _10  and  _12
REMARK    6  A    between atoms: _12  and  _13
REMARK    7  A    between atoms: _12  and  _15
REMARK    8  A    between atoms: _15  and  _16
REMARK    9  A    between atoms: _19  and  _21
REMARK   10  A    between atoms: _21  and  _22
REMARK   11  A    between atoms: _24  and  _26
REMARK   12  A    between atoms: _26  and  _27
REMARK   13  A    between atoms: _26  and  _29
REMARK   14  A    between atoms: _29  and  _30
REMARK   15  A    between atoms: _35  and  _37
REMARK   16  A    between atoms: _37  and  _38
REMARK   17  A    between atoms: _37  and  _40
REMARK   18  A    between atoms: _40  and  _41
REMARK   19  A    between atoms: _41  and  _42
REMARK   20  A    between atoms: _42  and  _43
REMARK   21  A    between atoms: _52  and  _54
REMARK   22  A    between atoms: _54  and  _55
REMARK   23  A    between atoms: _54  and  _57
REMARK   24  A    between atoms: _57  and  _58
REMARK   25  A    between atoms: _61  and  _63
REMARK   26  A    between atoms: _63  and  _64
REMARK   27  A    between atoms: _63  and  _66
REMARK   28  A    between atoms: _66  and  _67
REMARK   29  A    between atoms: _72  and  _74
REMARK   30  A    between atoms: _74  and  _75
REMARK   31  A    between atoms: _74  and  _77
REMARK   32  A    between atoms: _77  and  _78
REMARK   33  A    between atoms: _81  and  _83
REMARK   34  A    between atoms: _83  and  _84
REMARK   35  A    between atoms: _83  and  _86
REMARK   36  A    between atoms: _86  and  _87
REMARK   37  A    between atoms: _92  and  _94
REMARK   38  A    between atoms: _94  and  _95
REMARK   39  A    between atoms: _94  and  _97
REMARK   40  A    between atoms: _97  and  _98
REMARK   41  A    between atoms: _98  and  _99
REMARK   42  A    between atoms: _99  and  _100
REMARK   43  A    between atoms: _109  and  _111
REMARK   44  A    between atoms: _111  and  _112
REMARK   45  A    between atoms: _111  and  _114
REMARK   46  A    between atoms: _114  and  _115
REMARK   47  A    between atoms: _120  and  _122
REMARK   48  A    between atoms: _122  and  _123
REMARK   49  A    between atoms: _125  and  _127
REMARK   50  A    between atoms: _127  and  _128
REMARK   51  A    between atoms: _127  and  _130
REMARK   52  A    between atoms: _130  and  _131
REMARK   53  A    between atoms: _134  and  _136
REMARK   54  A    between atoms: _136  and  _137
REMARK   55  A    between atoms: _136  and  _139
REMARK   56  A    between atoms: _141  and  _143
REMARK   57  A    between atoms: _143  and  _144
REMARK   58  A    between atoms: _143  and  _146
REMARK   59  A    between atoms: _146  and  _147
REMARK   60  A    between atoms: _147  and  _148
REMARK   61  A    between atoms: _148  and  _149
REMARK   62  A    between atoms: _158  and  _160
REMARK   63  A    between atoms: _160  and  _161
REMARK   64  A    between atoms: _160  and  _163
REMARK   65  A    between atoms: _163  and  _164
REMARK   66  A    between atoms: _164  and  _165
REMARK   67  A    between atoms: _167  and  _169
REMARK   68  A    between atoms: _169  and  _170
REMARK   69  A    between atoms: _169  and  _172
REMARK   70  A    between atoms: _172  and  _173
REMARK   71  A    between atoms: _176  and  _178
REMARK   72  A    between atoms: _178  and  _179
REMARK   73  A    between atoms: _178  and  _181
REMARK   74  A    between atoms: _181  and  _182
REMARK   75  A    between atoms: _185  and  _187
REMARK   76  A    between atoms: _187  and  _188
REMARK   77  A    between atoms: _190  and  _192
REMARK   78  A    between atoms: _192  and  _193
REMARK   79  A    between atoms: _192  and  _195
REMARK   80  A    between atoms: _195  and  _196
REMARK   81  A    between atoms: _196  and  _197
REMARK   82  A    between atoms: _200  and  _202
REMARK   83  A    between atoms: _202  and  _203
REMARK   84  A    between atoms: _202  and  _205
REMARK   85  A    between atoms: _208  and  _210
REMARK   86  A    between atoms: _210  and  _211
REMARK   87  A    between atoms: _210  and  _213
REMARK   88  A    between atoms: _213  and  _214
REMARK   89  A    between atoms: _217  and  _219
REMARK   90  A    between atoms: _219  and  _220
REMARK   91  A    between atoms: _219  and  _222
REMARK   92  A    between atoms: _222  and  _223
REMARK   93  A    between atoms: _226  and  _228
REMARK   94  A    between atoms: _228  and  _229
REMARK   95  A    between atoms: _232  and  _234
REMARK   96  A    between atoms: _234  and  _235
REMARK   97  A    between atoms: _234  and  _237
REMARK   98  A    between atoms: _240  and  _242
REMARK   99  A    between atoms: _242  and  _243
REMARK  100  A    between atoms: _242  and  _245
REMARK  101  A    between atoms: _245  and  _246
REMARK  102  A    between atoms: _246  and  _247
REMARK  103  A    between atoms: _250  and  _252
REMARK  104  A    between atoms: _252  and  _253
REMARK  105  A    between atoms: _256  and  _258
REMARK  106  A    between atoms: _258  and  _259
REMARK  107  A    between atoms: _262  and  _264
REMARK  108  A    between atoms: _264  and  _265
REMARK  109  A    between atoms: _264  and  _267
REMARK  110  A    between atoms: _267  and  _268
REMARK  111  A    between atoms: _270  and  _272
REMARK  112  A    between atoms: _272  and  _273
REMARK  113  A    between atoms: _272  and  _275
REMARK  114  A    between atoms: _275  and  _276
REMARK  115  A    between atoms: _286  and  _288
REMARK  116  A    between atoms: _288  and  _289
REMARK  117  A    between atoms: _292  and  _293
REMARK  118  A    between atoms: _298  and  _300
REMARK  119  A    between atoms: _300  and  _301
REMARK  120  A    between atoms: _300  and  _303
REMARK  121  A    between atoms: _303  and  _304
REMARK  122  A    between atoms: _304  and  _305
REMARK  123  A    between atoms: _308  and  _310
REMARK  124  A    between atoms: _310  and  _311
REMARK  125  A    between atoms: _310  and  _313
REMARK  126  A    between atoms: _313  and  _314
REMARK  127  A    between atoms: _317  and  _319
REMARK  128  A    between atoms: _319  and  _320
REMARK  129  A    between atoms: _319  and  _322
REMARK  130  A    between atoms: _322  and  _323
REMARK  131  A    between atoms: _326  and  _328
REMARK  132  A    between atoms: _328  and  _329
REMARK  133  A    between atoms: _328  and  _331
REMARK  134  A    between atoms: _331  and  _332
REMARK  135  A    between atoms: _335  and  _337
REMARK  136  A    between atoms: _337  and  _338
REMARK  137  A    between atoms: _337  and  _340
REMARK  138  A    between atoms: _343  and  _345
REMARK  139  A    between atoms: _345  and  _346
REMARK  140  A    between atoms: _345  and  _348
REMARK  141  A    between atoms: _348  and  _349
REMARK  142  A    between atoms: _352  and  _354
REMARK  143  A    between atoms: _354  and  _355
REMARK  144  A    between atoms: _358  and  _359
REMARK  145  A    between atoms: _364  and  _366
REMARK  146  A    between atoms: _366  and  _367
REMARK  147  A    between atoms: _370  and  _372
REMARK  148  A    between atoms: _372  and  _373
REMARK  149  A    between atoms: _372  and  _375
REMARK  150  A    between atoms: _375  and  _376
REMARK  151  A    between atoms: _376  and  _377
REMARK  152  A    between atoms: _377  and  _378
REMARK  153  A    between atoms: _387  and  _389
REMARK  154  A    between atoms: _389  and  _390
REMARK  155  A    between atoms: _389  and  _392
REMARK  156  A    between atoms: _392  and  _393
REMARK  157  A    between atoms: _396  and  _398
REMARK  158  A    between atoms: _398  and  _399
REMARK  159  A    between atoms: _402  and  _404
REMARK  160  A    between atoms: _404  and  _405
REMARK  161  A    between atoms: _404  and  _407
REMARK  162  A    between atoms: _407  and  _408
REMARK  163  A    between atoms: _408  and  _409
REMARK  164  A    between atoms: _412  and  _414
REMARK  165  A    between atoms: _414  and  _415
REMARK  166  A    between atoms: _414  and  _417
REMARK  167  A    between atoms: _417  and  _418
REMARK  168  A    between atoms: _428  and  _430
REMARK  169  A    between atoms: _430  and  _431
REMARK  170  A    between atoms: _434  and  _436
REMARK  171  A    between atoms: _436  and  _437
REMARK  172  A    between atoms: _436  and  _439
REMARK  173  A    between atoms: _439  and  _440
REMARK  174  A    between atoms: _442  and  _444
REMARK  175  A    between atoms: _444  and  _445
REMARK  176  A    between atoms: _447  and  _449
REMARK  177  A    between atoms: _449  and  _450
REMARK  178  A    between atoms: _449  and  _452
REMARK  179  A    between atoms: _452  and  _453
REMARK  180  A    between atoms: _458  and  _460
REMARK  181  A    between atoms: _460  and  _461
REMARK  182  A    between atoms: _463  and  _465
REMARK  183  A    between atoms: _465  and  _466
REMARK  184  A    between atoms: _465  and  _468
REMARK  185  A    between atoms: _468  and  _469
REMARK  186  A    between atoms: _469  and  _471
REMARK  187  A    between atoms: _471  and  CA_629
REMARK  188  A    between atoms: _472  and  _474
REMARK  189  A    between atoms: _474  and  _475
REMARK  190  A    between atoms: _474  and  _477
REMARK  191  A    between atoms: _477  and  _478
REMARK  192  A    between atoms: _480  and  _482
REMARK  193  A    between atoms: _482  and  _483
REMARK  194  A    between atoms: _482  and  _485
REMARK  195  A    between atoms: _487  and  _489
REMARK  196  A    between atoms: _489  and  _490
REMARK  197  A    between atoms: _489  and  _492
REMARK  198  A    between atoms: _494  and  _496
REMARK  199  A    between atoms: _496  and  _497
REMARK  200  A    between atoms: _496  and  _499
REMARK  201  A    between atoms: _499  and  _500
REMARK  202  A    between atoms: _503  and  _505
REMARK  203  A    between atoms: _505  and  _506
REMARK  204  A    between atoms: _508  and  _510
REMARK  205  A    between atoms: _510  and  _511
REMARK  206  A    between atoms: _510  and  _513
REMARK  207  A    between atoms: _513  and  _514
REMARK  208  A    between atoms: _519  and  _520
REMARK  209  A    between atoms: _522  and  _524
REMARK  210  A    between atoms: _524  and  _525
REMARK  211  A    between atoms: _524  and  _527
REMARK  212  A    between atoms: _527  and  _528
REMARK  213  A    between atoms: _531  and  _533
REMARK  214  A    between atoms: _533  and  _534
REMARK  215  A    between atoms: _533  and  _536
REMARK  216  A    between atoms: _536  and  _537
REMARK  217  A    between atoms: _542  and  _544
REMARK  218  A    between atoms: _544  and  _545
REMARK  219  A    between atoms: _544  and  _547
REMARK  220  A    between atoms: _547  and  _548
REMARK  221  A    between atoms: _551  and  _553
REMARK  222  A    between atoms: _553  and  _554
REMARK  223  A    between atoms: _553  and  _556
REMARK  224  A    between atoms: _556  and  _557
REMARK  225  A    between atoms: _559  and  _561
REMARK  226  A    between atoms: _561  and  _562
REMARK  227  A    between atoms: _561  and  _564
REMARK  228  A    between atoms: _564  and  _565
REMARK  229  A    between atoms: _568  and  _570
REMARK  230  A    between atoms: _570  and  _571
REMARK  231  A    between atoms: _570  and  _573
REMARK  232  A    between atoms: _573  and  _574
REMARK  233  A    between atoms: _574  and  _575
REMARK  234  A    between atoms: _578  and  _580
REMARK  235  A    between atoms: _580  and  _581
REMARK  236  A    between atoms: _580  and  _583
REMARK  237  A    between atoms: _583  and  _584
REMARK  238  A    between atoms: _587  and  _589
REMARK  239  A    between atoms: _589  and  _590
REMARK  240  A    between atoms: _592  and  _594
REMARK  241  A    between atoms: _594  and  _595
REMARK  242  A    between atoms: _594  and  _597
REMARK  243  A    between atoms: _597  and  _598
REMARK  244  A    between atoms: _601  and  _603
REMARK  245  A    between atoms: _603  and  _604
REMARK  246  A    between atoms: _603  and  _606
REMARK  247  A    between atoms: _606  and  _607
REMARK  248  A    between atoms: _609  and  _611
REMARK  249  A    between atoms: _611  and  _612
REMARK  250  A    between atoms: _615  and  _617
REMARK  251  A    between atoms: _617  and  _618
REMARK  252  A    between atoms: _617  and  _620
REMARK  253  A    between atoms: _620  and  _621
REMARK  254  A    between atoms: _623  and  _625
REMARK  255  A    between atoms: _625  and  _626
REMARK                            x       y       z     vdW  Elec       q    Type
REMARK                         _______ _______ _______ _____ _____    ______ ____
ROOT
ATOM      1  CB  ASN A   1      37.822  34.420   1.542  0.00  0.00    +0.110 C 
ENDROOT
BRANCH   1   2
ATOM      2  CG  ASN A   1      36.611  33.766   0.869  0.00  0.00    +0.221 C 
ATOM      3  OD1 ASN A   1      35.512  34.332   0.861  0.00  0.00    -0.275 OA
ATOM      4  ND2 ASN A   1      36.811  32.592   0.284  0.00  0.00    -0.329 N 
ATOM      5 HD21 ASN A   1      37.752  32.150   0.314  0.00  0.00    +0.145 HD
ATOM      6 HD22 ASN A   1      36.027  32.114  -0.204  0.00  0.00    +0.145 HD
ENDBRANCH   1   2
BRANCH   1   7
ATOM      7  CA  ASN A   1      38.753  33.410   2.224  0.00  0.00    +0.142 C 
BRANCH   7   8
ATOM      8  N   ASN A   1      38.154  32.915   3.462  0.00  0.00    -0.239 NA
ATOM      9  H   ASN A   1      37.263  33.332   3.799  0.00  0.00    +0.142 HD
ENDBRANCH   7   8
BRANCH   7  10
ATOM     10  C   ASN A   1      40.117  34.070   2.475  0.00  0.00    +0.225 C 
ATOM     11  O   ASN A   1      41.069  33.826   1.736  0.00  0.00    -0.287 OA
ENDBRANCH   7  10
ENDBRANCH   1   7
TORSDOF 4
REMARK  Name = ../refined-set-2016/4ryd/4ryd_pocket.pdb
REMARK  255 active torsions:
REMARK  status: ('A' for Active; 'I' for Inactive)
REMARK    1  A    between atoms: _1  and  _3
REMARK    2  A    between atoms: _3  and  _4
REMARK    3  A    between atoms: _3  and  _6
REMARK    4  A    between atoms: _6  and  _7
REMARK    5  A    between atoms: _10  and  _12
REMARK    6  A    between atoms: _12  and  _13
REMARK    7  A    between atoms: _12  and  _15
REMARK    8  A    between atoms: _15  and  _16
REMARK    9  A    between atoms: _19  and  _21
REMARK   10  A    between atoms: _21  and  _22
REMARK   11  A    between atoms: _24  and  _26
REMARK   12  A    between atoms: _26  and  _27
REMARK   13  A    between atoms: _26  and  _29
REMARK   14  A    between atoms: _29  and  _30
REMARK   15  A    between atoms: _35  and  _37
REMARK   16  A    between atoms: _37  and  _38
REMARK   17  A    between atoms: _37  and  _40
REMARK   18  A    between atoms: _40  and  _41
REMARK   19  A    between atoms: _41  and  _42
REMARK   20  A    between atoms: _42  and  _43
REMARK   21  A    between atoms: _52  and  _54
REMARK   22  A    between atoms: _54  and  _55
REMARK   23  A    between atoms: _54  and  _57
REMARK   24  A    between atoms: _57  and  _58
REMARK   25  A    between atoms: _61  and  _63
REMARK   26  A    between atoms: _63  and  _64
REMARK   27  A    between atoms: _63  and  _66
REMARK   28  A    between atoms: _66  and  _67
REMARK   29  A    between atoms: _72  and  _74
REMARK   30  A    between atoms: _74  and  _75
REMARK   31  A    between atoms: _74  and  _77
REMARK   32  A    between atoms: _77  and  _78
REMARK   33  A    between atoms: _81  and  _83
REMARK   34  A    between atoms: _83  and  _84
REMARK   35  A    between atoms: _83  and  _86
REMARK   36  A    between atoms: _86  and  _87
REMARK   37  A    between atoms: _92  and  _94
REMARK   38  A    between atoms: _94  and  _95
REMARK   39  A    between atoms: _94  and  _97
REMARK   40  A    between atoms: _97  and  _98
REMARK   41  A    between atoms: _98  and  _99
REMARK   42  A    between atoms: _99  and  _100
REMARK   43  A    between atoms: _109  and  _111
REMARK   44  A    between atoms: _111  and  _112
REMARK   45  A    between atoms: _111  and  _114
REMARK   46  A    between atoms: _114  and  _115
REMARK   47  A    between atoms: _120  and  _122
REMARK   48  A    between atoms: _122  and  _123
REMARK   49  A    between atoms: _125  and  _127
REMARK   50  A    between atoms: _127  and  _128
REMARK   51  A    between atoms: _127  and  _130
REMARK   52  A    between atoms: _130  and  _131
REMARK   53  A    between atoms: _134  and  _136
REMARK   54  A    between atoms: _136  and  _137
REMARK   55  A    between atoms: _136  and  _139
REMARK   56  A    between atoms: _141  and  _143
REMARK   57  A    between atoms: _143  and  _144
REMARK   58  A    between atoms: _143  and  _146
REMARK   59  A    between atoms: _146  and  _147
REMARK   60  A    between atoms: _147  and  _148
REMARK   61  A    between atoms: _148  and  _149
REMARK   62  A    between atoms: _158  and  _160
REMARK   63  A    between atoms: _160  and  _161
REMARK   64  A    between atoms: _160  and  _163
REMARK   65  A    between atoms: _163  and  _164
REMARK   66  A    between atoms: _164  and  _165
REMARK   67  A    between atoms: _167  and  _169
REMARK   68  A    between atoms: _169  and  _170
REMARK   69  A    between atoms: _169  and  _172
REMARK   70  A    between atoms: _172  and  _173
REMARK   71  A    between atoms: _176  and  _178
REMARK   72  A    between atoms: _178  and  _179
REMARK   73  A    between atoms: _178  and  _181
REMARK   74  A    between atoms: _181  and  _182
REMARK   75  A    between atoms: _185  and  _187
REMARK   76  A    between atoms: _187  and  _188
REMARK   77  A    between atoms: _190  and  _192
REMARK   78  A    between atoms: _192  and  _193
REMARK   79  A    between atoms: _192  and  _195
REMARK   80  A    between atoms: _195  and  _196
REMARK   81  A    between atoms: _196  and  _197
REMARK   82  A    between atoms: _200  and  _202
REMARK   83  A    between atoms: _202  and  _203
REMARK   84  A    between atoms: _202  and  _205
REMARK   85  A    between atoms: _208  and  _210
REMARK   86  A    between atoms: _210  and  _211
REMARK   87  A    between atoms: _210  and  _213
REMARK   88  A    between atoms: _213  and  _214
REMARK   89  A    between atoms: _217  and  _219
REMARK   90  A    between atoms: _219  and  _220
REMARK   91  A    between atoms: _219  and  _222
REMARK   92  A    between atoms: _222  and  _223
REMARK   93  A    between atoms: _226  and  _228
REMARK   94  A    between atoms: _228  and  _229
REMARK   95  A    between atoms: _232  and  _234
REMARK   96  A    between atoms: _234  and  _235
REMARK   97  A    between atoms: _234  and  _237
REMARK   98  A    between atoms: _240  and  _242
REMARK   99  A    between atoms: _242  and  _243
REMARK  100  A    between atoms: _242  and  _245
REMARK  101  A    between atoms: _245  and  _246
REMARK  102  A    between atoms: _246  and  _247
REMARK  103  A    between atoms: _250  and  _252
REMARK  104  A    between atoms: _252  and  _253
REMARK  105  A    between atoms: _256  and  _258
REMARK  106  A    between atoms: _258  and  _259
REMARK  107  A    between atoms: _262  and  _264
REMARK  108  A    between atoms: _264  and  _265
REMARK  109  A    between atoms: _264  and  _267
REMARK  110  A    between atoms: _267  and  _268
REMARK  111  A    between atoms: _270  and  _272
REMARK  112  A    between atoms: _272  and  _273
REMARK  113  A    between atoms: _272  and  _275
REMARK  114  A    between atoms: _275  and  _276
REMARK  115  A    between atoms: _286  and  _288
REMARK  116  A    between atoms: _288  and  _289
REMARK  117  A    between atoms: _292  and  _293
REMARK  118  A    between atoms: _298  and  _300
REMARK  119  A    between atoms: _300  and  _301
REMARK  120  A    between atoms: _300  and  _303
REMARK  121  A    between atoms: _303  and  _304
REMARK  122  A    between atoms: _304  and  _305
REMARK  123  A    between atoms: _308  and  _310
REMARK  124  A    between atoms: _310  and  _311
REMARK  125  A    between atoms: _310  and  _313
REMARK  126  A    between atoms: _313  and  _314
REMARK  127  A    between atoms: _317  and  _319
REMARK  128  A    between atoms: _319  and  _320
REMARK  129  A    between atoms: _319  and  _322
REMARK  130  A    between atoms: _322  and  _323
REMARK  131  A    between atoms: _326  and  _328
REMARK  132  A    between atoms: _328  and  _329
REMARK  133  A    between atoms: _328  and  _331
REMARK  134  A    between atoms: _331  and  _332
REMARK  135  A    between atoms: _335  and  _337
REMARK  136  A    between atoms: _337  and  _338
REMARK  137  A    between atoms: _337  and  _340
REMARK  138  A    between atoms: _343  and  _345
REMARK  139  A    between atoms: _345  and  _346
REMARK  140  A    between atoms: _345  and  _348
REMARK  141  A    between atoms: _348  and  _349
REMARK  142  A    between atoms: _352  and  _354
REMARK  143  A    between atoms: _354  and  _355
REMARK  144  A    between atoms: _358  and  _359
REMARK  145  A    between atoms: _364  and  _366
REMARK  146  A    between atoms: _366  and  _367
REMARK  147  A    between atoms: _370  and  _372
REMARK  148  A    between atoms: _372  and  _373
REMARK  149  A    between atoms: _372  and  _375
REMARK  150  A    between atoms: _375  and  _376
REMARK  151  A    between atoms: _376  and  _377
REMARK  152  A    between atoms: _377  and  _378
REMARK  153  A    between atoms: _387  and  _389
REMARK  154  A    between atoms: _389  and  _390
REMARK  155  A    between atoms: _389  and  _392
REMARK  156  A    between atoms: _392  and  _393
REMARK  157  A    between atoms: _396  and  _398
REMARK  158  A    between atoms: _398  and  _399
REMARK  159  A    between atoms: _402  and  _404
REMARK  160  A    between atoms: _404  and  _405
REMARK  161  A    between atoms: _404  and  _407
REMARK  162  A    between atoms: _407  and  _408
REMARK  163  A    between atoms: _408  and  _409
REMARK  164  A    between atoms: _412  and  _414
REMARK  165  A    between atoms: _414  and  _415
REMARK  166  A    between atoms: _414  and  _417
REMARK  167  A    between atoms: _417  and  _418
REMARK  168  A    between atoms: _428  and  _430
REMARK  169  A    between atoms: _430  and  _431
REMARK  170  A    between atoms: _434  and  _436
REMARK  171  A    between atoms: _436  and  _437
REMARK  172  A    between atoms: _436  and  _439
REMARK  173  A    between atoms: _439  and  _440
REMARK  174  A    between atoms: _442  and  _444
REMARK  175  A    between atoms: _444  and  _445
REMARK  176  A    between atoms: _447  and  _449
REMARK  177  A    between atoms: _449  and  _450
REMARK  178  A    between atoms: _449  and  _452
REMARK  179  A    between atoms: _452  and  _453
REMARK  180  A    between atoms: _458  and  _460
REMARK  181  A    between atoms: _460  and  _461
REMARK  182  A    between atoms: _463  and  _465
REMARK  183  A    between atoms: _465  and  _466
REMARK  184  A    between atoms: _465  and  _468
REMARK  185  A    between atoms: _468  and  _469
REMARK  186  A    between atoms: _469  and  _471
REMARK  187  A    between atoms: _471  and  CA_629
REMARK  188  A    between atoms: _472  and  _474
REMARK  189  A    between atoms: _474  and  _475
REMARK  190  A    between atoms: _474  and  _477
REMARK  191  A    between atoms: _477  and  _478
REMARK  192  A    between atoms: _480  and  _482
REMARK  193  A    between atoms: _482  and  _483
REMARK  194  A    between atoms: _482  and  _485
REMARK  195  A    between atoms: _487  and  _489
REMARK  196  A    between atoms: _489  and  _490
REMARK  197  A    between atoms: _489  and  _492
REMARK  198  A    between atoms: _494  and  _496
REMARK  199  A    between atoms: _496  and  _497
REMARK  200  A    between atoms: _496  and  _499
REMARK  201  A    between atoms: _499  and  _500
REMARK  202  A    between atoms: _503  and  _505
REMARK  203  A    between atoms: _505  and  _506
REMARK  204  A    between atoms: _508  and  _510
REMARK  205  A    between atoms: _510  and  _511
REMARK  206  A    between atoms: _510  and  _513
REMARK  207  A    between atoms: _513  and  _514
REMARK  208  A    between atoms: _519  and  _520
REMARK  209  A    between atoms: _522  and  _524
REMARK  210  A    between atoms: _524  and  _525
REMARK  211  A    between atoms: _524  and  _527
REMARK  212  A    between atoms: _527  and  _528
REMARK  213  A    between atoms: _531  and  _533
REMARK  214  A    between atoms: _533  and  _534
REMARK  215  A    between atoms: _533  and  _536
REMARK  216  A    between atoms: _536  and  _537
REMARK  217  A    between atoms: _542  and  _544
REMARK  218  A    between atoms: _544  and  _545
REMARK  219  A    between atoms: _544  and  _547
REMARK  220  A    between atoms: _547  and  _548
REMARK  221  A    between atoms: _551  and  _553
REMARK  222  A    between atoms: _553  and  _554
REMARK  223  A    between atoms: _553  and  _556
REMARK  224  A    between atoms: _556  and  _557
REMARK  225  A    between atoms: _559  and  _561
REMARK  226  A    between atoms: _561  and  _562
REMARK  227  A    between atoms: _561  and  _564
REMARK  228  A    between atoms: _564  and  _565
REMARK  229  A    between atoms: _568  and  _570
REMARK  230  A    between atoms: _570  and  _571
REMARK  231  A    between atoms: _570  and  _573
REMARK  232  A    between atoms: _573  and  _574
REMARK  233  A    between atoms: _574  and  _575
REMARK  234  A    between atoms: _578  and  _580
REMARK  235  A    between atoms: _580  and  _581
REMARK  236  A    between atoms: _580  and  _583
REMARK  237  A    between atoms: _583  and  _584
REMARK  238  A    between atoms: _587  and  _589
REMARK  239  A    between atoms: _589  and  _590
REMARK  240  A    between atoms: _592  and  _594
REMARK  241  A    between atoms: _594  and  _595
REMARK  242  A    between atoms: _594  and  _597
REMARK  243  A    between atoms: _597  and  _598
REMARK  244  A    between atoms: _601  and  _603
REMARK  245  A    between atoms: _603  and  _604
REMARK  246  A    between atoms: _603  and  _606
REMARK  247  A    between atoms: _606  and  _607
REMARK  248  A    between atoms: _609  and  _611
REMARK  249  A    between atoms: _611  and  _612
REMARK  250  A    between atoms: _615  and  _617
REMARK  251  A    between atoms: _617  and  _618
REMARK  252  A    between atoms: _617  and  _620
REMARK  253  A    between atoms: _620  and  _621
REMARK  254  A    between atoms: _623  and  _625
REMARK  255  A    between atoms: _625  and  _626
REMARK                            x       y       z     vdW  Elec       q    Type
REMARK                         _______ _______ _______ _____ _____    ______ ____
ROOT
ATOM      1  NE  ARG A   1      36.662  41.463  -2.531  0.00  0.00    -0.265 N 
ATOM      2  HE  ARG A   1      36.424  40.538  -2.119  0.00  0.00    +0.259 HD
ATOM      3  CZ  ARG A   1      36.206  41.737  -3.747  0.00  0.00    +0.342 C 
ATOM      4  NH2 ARG A   1      36.529  42.883  -4.325  0.00  0.00    -0.292 N 
ATOM      5 HH21 ARG A   1      37.137  43.564  -3.827  0.00  0.00    +0.255 HD
ATOM      6 HH22 ARG A   1      36.175  43.103  -5.278  0.00  0.00    +0.255 HD
ATOM      7  NH1 ARG A   1      35.452  40.853  -4.395  0.00  0.00    -0.292 N 
ATOM      8 HH11 ARG A   1      35.218  39.943  -3.949  0.00  0.00    +0.255 HD
ATOM      9 HH12 ARG A   1      35.097  41.072  -5.348  0.00  0.00    +0.255 HD
ENDROOT
BRANCH   1  10
ATOM     10  CD  ARG A   1      37.475  42.375  -1.735  0.00  0.00    +0.174 C 
BRANCH  10  11
ATOM     11  CG  ARG A   1      36.579  43.321  -0.931  0.00  0.00    +0.045 C 
BRANCH  11  12
ATOM     12  CB  ARG A   1      35.695  42.525   0.035  0.00  0.00    +0.029 C 
BRANCH  12  13
ATOM     13  CA  ARG A   1      34.879  43.397   0.984  0.00  0.00    +0.133 C 
BRANCH  13  14
ATOM     14  N   ARG A   1      33.944  42.589   1.749  0.00  0.00    -0.239 NA
ATOM     15  H   ARG A   1      33.594  41.700   1.339  0.00  0.00    +0.142 HD
ENDBRANCH  13  14
BRANCH  13  16
ATOM     16  C   ARG A   1      34.018  44.355   0.182  0.00  0.00    +0.224 C 
ATOM     17  O   ARG A   1      33.213  43.925  -0.650  0.00  0.00    -0.287 OA
ENDBRANCH  13  16
ENDBRANCH  12  13
ENDBRANCH  11  12
ENDBRANCH  10  11
ENDBRANCH   1  10
TORSDOF 6
REMARK  Name = ../refined-set-2016/4ryd/4ryd_pocket.pdb
REMARK  255 active torsions:
REMARK  status: ('A' for Active; 'I' for Inactive)
REMARK    1  A    between atoms: _1  and  _3
REMARK    2  A    between atoms: _3  and  _4
REMARK    3  A    between atoms: _3  and  _6
REMARK    4  A    between atoms: _6  and  _7
REMARK    5  A    between atoms: _10  and  _12
REMARK    6  A    between atoms: _12  and  _13
REMARK    7  A    between atoms: _12  and  _15
REMARK    8  A    between atoms: _15  and  _16
REMARK    9  A    between atoms: _19  and  _21
REMARK   10  A    between atoms: _21  and  _22
REMARK   11  A    between atoms: _24  and  _26
REMARK   12  A    between atoms: _26  and  _27
REMARK   13  A    between atoms: _26  and  _29
REMARK   14  A    between atoms: _29  and  _30
REMARK   15  A    between atoms: _35  and  _37
REMARK   16  A    between atoms: _37  and  _38
REMARK   17  A    between atoms: _37  and  _40
REMARK   18  A    between atoms: _40  and  _41
REMARK   19  A    between atoms: _41  and  _42
REMARK   20  A    between atoms: _42  and  _43
REMARK   21  A    between atoms: _52  and  _54
REMARK   22  A    between atoms: _54  and  _55
REMARK   23  A    between atoms: _54  and  _57
REMARK   24  A    between atoms: _57  and  _58
REMARK   25  A    between atoms: _61  and  _63
REMARK   26  A    between atoms: _63  and  _64
REMARK   27  A    between atoms: _63  and  _66
REMARK   28  A    between atoms: _66  and  _67
REMARK   29  A    between atoms: _72  and  _74
REMARK   30  A    between atoms: _74  and  _75
REMARK   31  A    between atoms: _74  and  _77
REMARK   32  A    between atoms: _77  and  _78
REMARK   33  A    between atoms: _81  and  _83
REMARK   34  A    between atoms: _83  and  _84
REMARK   35  A    between atoms: _83  and  _86
REMARK   36  A    between atoms: _86  and  _87
REMARK   37  A    between atoms: _92  and  _94
REMARK   38  A    between atoms: _94  and  _95
REMARK   39  A    between atoms: _94  and  _97
REMARK   40  A    between atoms: _97  and  _98
REMARK   41  A    between atoms: _98  and  _99
REMARK   42  A    between atoms: _99  and  _100
REMARK   43  A    between atoms: _109  and  _111
REMARK   44  A    between atoms: _111  and  _112
REMARK   45  A    between atoms: _111  and  _114
REMARK   46  A    between atoms: _114  and  _115
REMARK   47  A    between atoms: _120  and  _122
REMARK   48  A    between atoms: _122  and  _123
REMARK   49  A    between atoms: _125  and  _127
REMARK   50  A    between atoms: _127  and  _128
REMARK   51  A    between atoms: _127  and  _130
REMARK   52  A    between atoms: _130  and  _131
REMARK   53  A    between atoms: _134  and  _136
REMARK   54  A    between atoms: _136  and  _137
REMARK   55  A    between atoms: _136  and  _139
REMARK   56  A    between atoms: _141  and  _143
REMARK   57  A    between atoms: _143  and  _144
REMARK   58  A    between atoms: _143  and  _146
REMARK   59  A    between atoms: _146  and  _147
REMARK   60  A    between atoms: _147  and  _148
REMARK   61  A    between atoms: _148  and  _149
REMARK   62  A    between atoms: _158  and  _160
REMARK   63  A    between atoms: _160  and  _161
REMARK   64  A    between atoms: _160  and  _163
REMARK   65  A    between atoms: _163  and  _164
REMARK   66  A    between atoms: _164  and  _165
REMARK   67  A    between atoms: _167  and  _169
REMARK   68  A    between atoms: _169  and  _170
REMARK   69  A    between atoms: _169  and  _172
REMARK   70  A    between atoms: _172  and  _173
REMARK   71  A    between atoms: _176  and  _178
REMARK   72  A    between atoms: _178  and  _179
REMARK   73  A    between atoms: _178  and  _181
REMARK   74  A    between atoms: _181  and  _182
REMARK   75  A    between atoms: _185  and  _187
REMARK   76  A    between atoms: _187  and  _188
REMARK   77  A    between atoms: _190  and  _192
REMARK   78  A    between atoms: _192  and  _193
REMARK   79  A    between atoms: _192  and  _195
REMARK   80  A    between atoms: _195  and  _196
REMARK   81  A    between atoms: _196  and  _197
REMARK   82  A    between atoms: _200  and  _202
REMARK   83  A    between atoms: _202  and  _203
REMARK   84  A    between atoms: _202  and  _205
REMARK   85  A    between atoms: _208  and  _210
REMARK   86  A    between atoms: _210  and  _211
REMARK   87  A    between atoms: _210  and  _213
REMARK   88  A    between atoms: _213  and  _214
REMARK   89  A    between atoms: _217  and  _219
REMARK   90  A    between atoms: _219  and  _220
REMARK   91  A    between atoms: _219  and  _222
REMARK   92  A    between atoms: _222  and  _223
REMARK   93  A    between atoms: _226  and  _228
REMARK   94  A    between atoms: _228  and  _229
REMARK   95  A    between atoms: _232  and  _234
REMARK   96  A    between atoms: _234  and  _235
REMARK   97  A    between atoms: _234  and  _237
REMARK   98  A    between atoms: _240  and  _242
REMARK   99  A    between atoms: _242  and  _243
REMARK  100  A    between atoms: _242  and  _245
REMARK  101  A    between atoms: _245  and  _246
REMARK  102  A    between atoms: _246  and  _247
REMARK  103  A    between atoms: _250  and  _252
REMARK  104  A    between atoms: _252  and  _253
REMARK  105  A    between atoms: _256  and  _258
REMARK  106  A    between atoms: _258  and  _259
REMARK  107  A    between atoms: _262  and  _264
REMARK  108  A    between atoms: _264  and  _265
REMARK  109  A    between atoms: _264  and  _267
REMARK  110  A    between atoms: _267  and  _268
REMARK  111  A    between atoms: _270  and  _272
REMARK  112  A    between atoms: _272  and  _273
REMARK  113  A    between atoms: _272  and  _275
REMARK  114  A    between atoms: _275  and  _276
REMARK  115  A    between atoms: _286  and  _288
REMARK  116  A    between atoms: _288  and  _289
REMARK  117  A    between atoms: _292  and  _293
REMARK  118  A    between atoms: _298  and  _300
REMARK  119  A    between atoms: _300  and  _301
REMARK  120  A    between atoms: _300  and  _303
REMARK  121  A    between atoms: _303  and  _304
REMARK  122  A    between atoms: _304  and  _305
REMARK  123  A    between atoms: _308  and  _310
REMARK  124  A    between atoms: _310  and  _311
REMARK  125  A    between atoms: _310  and  _313
REMARK  126  A    between atoms: _313  and  _314
REMARK  127  A    between atoms: _317  and  _319
REMARK  128  A    between atoms: _319  and  _320
REMARK  129  A    between atoms: _319  and  _322
REMARK  130  A    between atoms: _322  and  _323
REMARK  131  A    between atoms: _326  and  _328
REMARK  132  A    between atoms: _328  and  _329
REMARK  133  A    between atoms: _328  and  _331
REMARK  134  A    between atoms: _331  and  _332
REMARK  135  A    between atoms: _335  and  _337
REMARK  136  A    between atoms: _337  and  _338
REMARK  137  A    between atoms: _337  and  _340
REMARK  138  A    between atoms: _343  and  _345
REMARK  139  A    between atoms: _345  and  _346
REMARK  140  A    between atoms: _345  and  _348
REMARK  141  A    between atoms: _348  and  _349
REMARK  142  A    between atoms: _352  and  _354
REMARK  143  A    between atoms: _354  and  _355
REMARK  144  A    between atoms: _358  and  _359
REMARK  145  A    between atoms: _364  and  _366
REMARK  146  A    between atoms: _366  and  _367
REMARK  147  A    between atoms: _370  and  _372
REMARK  148  A    between atoms: _372  and  _373
REMARK  149  A    between atoms: _372  and  _375
REMARK  150  A    between atoms: _375  and  _376
REMARK  151  A    between atoms: _376  and  _377
REMARK  152  A    between atoms: _377  and  _378
REMARK  153  A    between atoms: _387  and  _389
REMARK  154  A    between atoms: _389  and  _390
REMARK  155  A    between atoms: _389  and  _392
REMARK  156  A    between atoms: _392  and  _393
REMARK  157  A    between atoms: _396  and  _398
REMARK  158  A    between atoms: _398  and  _399
REMARK  159  A    between atoms: _402  and  _404
REMARK  160  A    between atoms: _404  and  _405
REMARK  161  A    between atoms: _404  and  _407
REMARK  162  A    between atoms: _407  and  _408
REMARK  163  A    between atoms: _408  and  _409
REMARK  164  A    between atoms: _412  and  _414
REMARK  165  A    between atoms: _414  and  _415
REMARK  166  A    between atoms: _414  and  _417
REMARK  167  A    between atoms: _417  and  _418
REMARK  168  A    between atoms: _428  and  _430
REMARK  169  A    between atoms: _430  and  _431
REMARK  170  A    between atoms: _434  and  _436
REMARK  171  A    between atoms: _436  and  _437
REMARK  172  A    between atoms: _436  and  _439
REMARK  173  A    between atoms: _439  and  _440
REMARK  174  A    between atoms: _442  and  _444
REMARK  175  A    between atoms: _444  and  _445
REMARK  176  A    between atoms: _447  and  _449
REMARK  177  A    between atoms: _449  and  _450
REMARK  178  A    between atoms: _449  and  _452
REMARK  179  A    between atoms: _452  and  _453
REMARK  180  A    between atoms: _458  and  _460
REMARK  181  A    between atoms: _460  and  _461
REMARK  182  A    between atoms: _463  and  _465
REMARK  183  A    between atoms: _465  and  _466
REMARK  184  A    between atoms: _465  and  _468
REMARK  185  A    between atoms: _468  and  _469
REMARK  186  A    between atoms: _469  and  _471
REMARK  187  A    between atoms: _471  and  CA_629
REMARK  188  A    between atoms: _472  and  _474
REMARK  189  A    between atoms: _474  and  _475
REMARK  190  A    between atoms: _474  and  _477
REMARK  191  A    between atoms: _477  and  _478
REMARK  192  A    between atoms: _480  and  _482
REMARK  193  A    between atoms: _482  and  _483
REMARK  194  A    between atoms: _482  and  _485
REMARK  195  A    between atoms: _487  and  _489
REMARK  196  A    between atoms: _489  and  _490
REMARK  197  A    between atoms: _489  and  _492
REMARK  198  A    between atoms: _494  and  _496
REMARK  199  A    between atoms: _496  and  _497
REMARK  200  A    between atoms: _496  and  _499
REMARK  201  A    between atoms: _499  and  _500
REMARK  202  A    between atoms: _503  and  _505
REMARK  203  A    between atoms: _505  and  _506
REMARK  204  A    between atoms: _508  and  _510
REMARK  205  A    between atoms: _510  and  _511
REMARK  206  A    between atoms: _510  and  _513
REMARK  207  A    between atoms: _513  and  _514
REMARK  208  A    between atoms: _519  and  _520
REMARK  209  A    between atoms: _522  and  _524
REMARK  210  A    between atoms: _524  and  _525
REMARK  211  A    between atoms: _524  and  _527
REMARK  212  A    between atoms: _527  and  _528
REMARK  213  A    between atoms: _531  and  _533
REMARK  214  A    between atoms: _533  and  _534
REMARK  215  A    between atoms: _533  and  _536
REMARK  216  A    between atoms: _536  and  _537
REMARK  217  A    between atoms: _542  and  _544
REMARK  218  A    between atoms: _544  and  _545
REMARK  219  A    between atoms: _544  and  _547
REMARK  220  A    between atoms: _547  and  _548
REMARK  221  A    between atoms: _551  and  _553
REMARK  222  A    between atoms: _553  and  _554
REMARK  223  A    between atoms: _553  and  _556
REMARK  224  A    between atoms: _556  and  _557
REMARK  225  A    between atoms: _559  and  _561
REMARK  226  A    between atoms: _561  and  _562
REMARK  227  A    between atoms: _561  and  _564
REMARK  228  A    between atoms: _564  and  _565
REMARK  229  A    between atoms: _568  and  _570
REMARK  230  A    between atoms: _570  and  _571
REMARK  231  A    between atoms: _570  and  _573
REMARK  232  A    between atoms: _573  and  _574
REMARK  233  A    between atoms: _574  and  _575
REMARK  234  A    between atoms: _578  and  _580
REMARK  235  A    between atoms: _580  and  _581
REMARK  236  A    between atoms: _580  and  _583
REMARK  237  A    between atoms: _583  and  _584
REMARK  238  A    between atoms: _587  and  _589
REMARK  239  A    between atoms: _589  and  _590
REMARK  240  A    between atoms: _592  and  _594
REMARK  241  A    between atoms: _594  and  _595
REMARK  242  A    between atoms: _594  and  _597
REMARK  243  A    between atoms: _597  and  _598
REMARK  244  A    between atoms: _601  and  _603
REMARK  245  A    between atoms: _603  and  _604
REMARK  246  A    between atoms: _603  and  _606
REMARK  247  A    between atoms: _606  and  _607
REMARK  248  A    between atoms: _609  and  _611
REMARK  249  A    between atoms: _611  and  _612
REMARK  250  A    between atoms: _615  and  _617
REMARK  251  A    between atoms: _617  and  _618
REMARK  252  A    between atoms: _617  and  _620
REMARK  253  A    between atoms: _620  and  _621
REMARK  254  A    between atoms: _623  and  _625
REMARK  255  A    between atoms: _625  and  _626
REMARK                            x       y       z     vdW  Elec       q    Type
REMARK                         _______ _______ _______ _____ _____    ______ ____
ROOT
ATOM      1  CA  THR A   1      33.188  47.368  -4.005  0.00  0.00    +0.160 C 
ENDROOT
BRANCH   1   2
ATOM      2  N   THR A   1      32.905  47.040  -2.615  0.00  0.00    -0.237 NA
ATOM      3  H   THR A   1      31.919  46.862  -2.336  0.00  0.00    +0.142 HD
ENDBRANCH   1   2
BRANCH   1   4
ATOM      4  C   THR A   1      32.043  48.253  -4.511  0.00  0.00    +0.227 C 
ATOM      5  O   THR A   1      30.958  48.264  -3.929  0.00  0.00    -0.287 OA
ENDBRANCH   1   4
BRANCH   1   6
ATOM      6  CB  THR A   1      33.264  46.112  -4.892  0.00  0.00    +0.134 C 
ATOM      7  CG2 THR A   1      34.272  45.134  -4.332  0.00  0.00    +0.034 C 
BRANCH   6   8
ATOM      8  OG1 THR A   1      31.978  45.478  -4.953  0.00  0.00    -0.383 OA
ATOM      9  HG1 THR A   1      32.036  44.672  -5.525  0.00  0.00    +0.210 HD
ENDBRANCH   6   8
ENDBRANCH   1   6
TORSDOF 4
REMARK  Name = ../refined-set-2016/4ryd/4ryd_pocket.pdb
REMARK  255 active torsions:
REMARK  status: ('A' for Active; 'I' for Inactive)
REMARK    1  A    between atoms: _1  and  _3
REMARK    2  A    between atoms: _3  and  _4
REMARK    3  A    between atoms: _3  and  _6
REMARK    4  A    between atoms: _6  and  _7
REMARK    5  A    between atoms: _10  and  _12
REMARK    6  A    between atoms: _12  and  _13
REMARK    7  A    between atoms: _12  and  _15
REMARK    8  A    between atoms: _15  and  _16
REMARK    9  A    between atoms: _19  and  _21
REMARK   10  A    between atoms: _21  and  _22
REMARK   11  A    between atoms: _24  and  _26
REMARK   12  A    between atoms: _26  and  _27
REMARK   13  A    between atoms: _26  and  _29
REMARK   14  A    between atoms: _29  and  _30
REMARK   15  A    between atoms: _35  and  _37
REMARK   16  A    between atoms: _37  and  _38
REMARK   17  A    between atoms: _37  and  _40
REMARK   18  A    between atoms: _40  and  _41
REMARK   19  A    between atoms: _41  and  _42
REMARK   20  A    between atoms: _42  and  _43
REMARK   21  A    between atoms: _52  and  _54
REMARK   22  A    between atoms: _54  and  _55
REMARK   23  A    between atoms: _54  and  _57
REMARK   24  A    between atoms: _57  and  _58
REMARK   25  A    between atoms: _61  and  _63
REMARK   26  A    between atoms: _63  and  _64
REMARK   27  A    between atoms: _63  and  _66
REMARK   28  A    between atoms: _66  and  _67
REMARK   29  A    between atoms: _72  and  _74
REMARK   30  A    between atoms: _74  and  _75
REMARK   31  A    between atoms: _74  and  _77
REMARK   32  A    between atoms: _77  and  _78
REMARK   33  A    between atoms: _81  and  _83
REMARK   34  A    between atoms: _83  and  _84
REMARK   35  A    between atoms: _83  and  _86
REMARK   36  A    between atoms: _86  and  _87
REMARK   37  A    between atoms: _92  and  _94
REMARK   38  A    between atoms: _94  and  _95
REMARK   39  A    between atoms: _94  and  _97
REMARK   40  A    between atoms: _97  and  _98
REMARK   41  A    between atoms: _98  and  _99
REMARK   42  A    between atoms: _99  and  _100
REMARK   43  A    between atoms: _109  and  _111
REMARK   44  A    between atoms: _111  and  _112
REMARK   45  A    between atoms: _111  and  _114
REMARK   46  A    between atoms: _114  and  _115
REMARK   47  A    between atoms: _120  and  _122
REMARK   48  A    between atoms: _122  and  _123
REMARK   49  A    between atoms: _125  and  _127
REMARK   50  A    between atoms: _127  and  _128
REMARK   51  A    between atoms: _127  and  _130
REMARK   52  A    between atoms: _130  and  _131
REMARK   53  A    between atoms: _134  and  _136
REMARK   54  A    between atoms: _136  and  _137
REMARK   55  A    between atoms: _136  and  _139
REMARK   56  A    between atoms: _141  and  _143
REMARK   57  A    between atoms: _143  and  _144
REMARK   58  A    between atoms: _143  and  _146
REMARK   59  A    between atoms: _146  and  _147
REMARK   60  A    between atoms: _147  and  _148
REMARK   61  A    between atoms: _148  and  _149
REMARK   62  A    between atoms: _158  and  _160
REMARK   63  A    between atoms: _160  and  _161
REMARK   64  A    between atoms: _160  and  _163
REMARK   65  A    between atoms: _163  and  _164
REMARK   66  A    between atoms: _164  and  _165
REMARK   67  A    between atoms: _167  and  _169
REMARK   68  A    between atoms: _169  and  _170
REMARK   69  A    between atoms: _169  and  _172
REMARK   70  A    between atoms: _172  and  _173
REMARK   71  A    between atoms: _176  and  _178
REMARK   72  A    between atoms: _178  and  _179
REMARK   73  A    between atoms: _178  and  _181
REMARK   74  A    between atoms: _181  and  _182
REMARK   75  A    between atoms: _185  and  _187
REMARK   76  A    between atoms: _187  and  _188
REMARK   77  A    between atoms: _190  and  _192
REMARK   78  A    between atoms: _192  and  _193
REMARK   79  A    between atoms: _192  and  _195
REMARK   80  A    between atoms: _195  and  _196
REMARK   81  A    between atoms: _196  and  _197
REMARK   82  A    between atoms: _200  and  _202
REMARK   83  A    between atoms: _202  and  _203
REMARK   84  A    between atoms: _202  and  _205
REMARK   85  A    between atoms: _208  and  _210
REMARK   86  A    between atoms: _210  and  _211
REMARK   87  A    between atoms: _210  and  _213
REMARK   88  A    between atoms: _213  and  _214
REMARK   89  A    between atoms: _217  and  _219
REMARK   90  A    between atoms: _219  and  _220
REMARK   91  A    between atoms: _219  and  _222
REMARK   92  A    between atoms: _222  and  _223
REMARK   93  A    between atoms: _226  and  _228
REMARK   94  A    between atoms: _228  and  _229
REMARK   95  A    between atoms: _232  and  _234
REMARK   96  A    between atoms: _234  and  _235
REMARK   97  A    between atoms: _234  and  _237
REMARK   98  A    between atoms: _240  and  _242
REMARK   99  A    between atoms: _242  and  _243
REMARK  100  A    between atoms: _242  and  _245
REMARK  101  A    between atoms: _245  and  _246
REMARK  102  A    between atoms: _246  and  _247
REMARK  103  A    between atoms: _250  and  _252
REMARK  104  A    between atoms: _252  and  _253
REMARK  105  A    between atoms: _256  and  _258
REMARK  106  A    between atoms: _258  and  _259
REMARK  107  A    between atoms: _262  and  _264
REMARK  108  A    between atoms: _264  and  _265
REMARK  109  A    between atoms: _264  and  _267
REMARK  110  A    between atoms: _267  and  _268
REMARK  111  A    between atoms: _270  and  _272
REMARK  112  A    between atoms: _272  and  _273
REMARK  113  A    between atoms: _272  and  _275
REMARK  114  A    between atoms: _275  and  _276
REMARK  115  A    between atoms: _286  and  _288
REMARK  116  A    between atoms: _288  and  _289
REMARK  117  A    between atoms: _292  and  _293
REMARK  118  A    between atoms: _298  and  _300
REMARK  119  A    between atoms: _300  and  _301
REMARK  120  A    between atoms: _300  and  _303
REMARK  121  A    between atoms: _303  and  _304
REMARK  122  A    between atoms: _304  and  _305
REMARK  123  A    between atoms: _308  and  _310
REMARK  124  A    between atoms: _310  and  _311
REMARK  125  A    between atoms: _310  and  _313
REMARK  126  A    between atoms: _313  and  _314
REMARK  127  A    between atoms: _317  and  _319
REMARK  128  A    between atoms: _319  and  _320
REMARK  129  A    between atoms: _319  and  _322
REMARK  130  A    between atoms: _322  and  _323
REMARK  131  A    between atoms: _326  and  _328
REMARK  132  A    between atoms: _328  and  _329
REMARK  133  A    between atoms: _328  and  _331
REMARK  134  A    between atoms: _331  and  _332
REMARK  135  A    between atoms: _335  and  _337
REMARK  136  A    between atoms: _337  and  _338
REMARK  137  A    between atoms: _337  and  _340
REMARK  138  A    between atoms: _343  and  _345
REMARK  139  A    between atoms: _345  and  _346
REMARK  140  A    between atoms: _345  and  _348
REMARK  141  A    between atoms: _348  and  _349
REMARK  142  A    between atoms: _352  and  _354
REMARK  143  A    between atoms: _354  and  _355
REMARK  144  A    between atoms: _358  and  _359
REMARK  145  A    between atoms: _364  and  _366
REMARK  146  A    between atoms: _366  and  _367
REMARK  147  A    between atoms: _370  and  _372
REMARK  148  A    between atoms: _372  and  _373
REMARK  149  A    between atoms: _372  and  _375
REMARK  150  A    between atoms: _375  and  _376
REMARK  151  A    between atoms: _376  and  _377
REMARK  152  A    between atoms: _377  and  _378
REMARK  153  A    between atoms: _387  and  _389
REMARK  154  A    between atoms: _389  and  _390
REMARK  155  A    between atoms: _389  and  _392
REMARK  156  A    between atoms: _392  and  _393
REMARK  157  A    between atoms: _396  and  _398
REMARK  158  A    between atoms: _398  and  _399
REMARK  159  A    between atoms: _402  and  _404
REMARK  160  A    between atoms: _404  and  _405
REMARK  161  A    between atoms: _404  and  _407
REMARK  162  A    between atoms: _407  and  _408
REMARK  163  A    between atoms: _408  and  _409
REMARK  164  A    between atoms: _412  and  _414
REMARK  165  A    between atoms: _414  and  _415
REMARK  166  A    between atoms: _414  and  _417
REMARK  167  A    between atoms: _417  and  _418
REMARK  168  A    between atoms: _428  and  _430
REMARK  169  A    between atoms: _430  and  _431
REMARK  170  A    between atoms: _434  and  _436
REMARK  171  A    between atoms: _436  and  _437
REMARK  172  A    between atoms: _436  and  _439
REMARK  173  A    between atoms: _439  and  _440
REMARK  174  A    between atoms: _442  and  _444
REMARK  175  A    between atoms: _444  and  _445
REMARK  176  A    between atoms: _447  and  _449
REMARK  177  A    between atoms: _449  and  _450
REMARK  178  A    between atoms: _449  and  _452
REMARK  179  A    between atoms: _452  and  _453
REMARK  180  A    between atoms: _458  and  _460
REMARK  181  A    between atoms: _460  and  _461
REMARK  182  A    between atoms: _463  and  _465
REMARK  183  A    between atoms: _465  and  _466
REMARK  184  A    between atoms: _465  and  _468
REMARK  185  A    between atoms: _468  and  _469
REMARK  186  A    between atoms: _469  and  _471
REMARK  187  A    between atoms: _471  and  CA_629
REMARK  188  A    between atoms: _472  and  _474
REMARK  189  A    between atoms: _474  and  _475
REMARK  190  A    between atoms: _474  and  _477
REMARK  191  A    between atoms: _477  and  _478
REMARK  192  A    between atoms: _480  and  _482
REMARK  193  A    between atoms: _482  and  _483
REMARK  194  A    between atoms: _482  and  _485
REMARK  195  A    between atoms: _487  and  _489
REMARK  196  A    between atoms: _489  and  _490
REMARK  197  A    between atoms: _489  and  _492
REMARK  198  A    between atoms: _494  and  _496
REMARK  199  A    between atoms: _496  and  _497
REMARK  200  A    between atoms: _496  and  _499
REMARK  201  A    between atoms: _499  and  _500
REMARK  202  A    between atoms: _503  and  _505
REMARK  203  A    between atoms: _505  and  _506
REMARK  204  A    between atoms: _508  and  _510
REMARK  205  A    between atoms: _510  and  _511
REMARK  206  A    between atoms: _510  and  _513
REMARK  207  A    between atoms: _513  and  _514
REMARK  208  A    between atoms: _519  and  _520
REMARK  209  A    between atoms: _522  and  _524
REMARK  210  A    between atoms: _524  and  _525
REMARK  211  A    between atoms: _524  and  _527
REMARK  212  A    between atoms: _527  and  _528
REMARK  213  A    between atoms: _531  and  _533
REMARK  214  A    between atoms: _533  and  _534
REMARK  215  A    between atoms: _533  and  _536
REMARK  216  A    between atoms: _536  and  _537
REMARK  217  A    between atoms: _542  and  _544
REMARK  218  A    between atoms: _544  and  _545
REMARK  219  A    between atoms: _544  and  _547
REMARK  220  A    between atoms: _547  and  _548
REMARK  221  A    between atoms: _551  and  _553
REMARK  222  A    between atoms: _553  and  _554
REMARK  223  A    between atoms: _553  and  _556
REMARK  224  A    between atoms: _556  and  _557
REMARK  225  A    between atoms: _559  and  _561
REMARK  226  A    between atoms: _561  and  _562
REMARK  227  A    between atoms: _561  and  _564
REMARK  228  A    between atoms: _564  and  _565
REMARK  229  A    between atoms: _568  and  _570
REMARK  230  A    between atoms: _570  and  _571
REMARK  231  A    between atoms: _570  and  _573
REMARK  232  A    between atoms: _573  and  _574
REMARK  233  A    between atoms: _574  and  _575
REMARK  234  A    between atoms: _578  and  _580
REMARK  235  A    between atoms: _580  and  _581
REMARK  236  A    between atoms: _580  and  _583
REMARK  237  A    between atoms: _583  and  _584
REMARK  238  A    between atoms: _587  and  _589
REMARK  239  A    between atoms: _589  and  _590
REMARK  240  A    between atoms: _592  and  _594
REMARK  241  A    between atoms: _594  and  _595
REMARK  242  A    between atoms: _594  and  _597
REMARK  243  A    between atoms: _597  and  _598
REMARK  244  A    between atoms: _601  and  _603
REMARK  245  A    between atoms: _603  and  _604
REMARK  246  A    between atoms: _603  and  _606
REMARK  247  A    between atoms: _606  and  _607
REMARK  248  A    between atoms: _609  and  _611
REMARK  249  A    between atoms: _611  and  _612
REMARK  250  A    between atoms: _615  and  _617
REMARK  251  A    between atoms: _617  and  _618
REMARK  252  A    between atoms: _617  and  _620
REMARK  253  A    between atoms: _620  and  _621
REMARK  254  A    between atoms: _623  and  _625
REMARK  255  A    between atoms: _625  and  _626
REMARK                            x       y       z     vdW  Elec       q    Type
REMARK                         _______ _______ _______ _____ _____    ______ ____
ROOT
ATOM      1  CA  ARG A   4      26.062  42.337   0.173  0.00  0.00    +0.149 C 
ENDROOT
BRANCH   1   4
ATOM      2  C   ASN A   3      28.362  41.607  -0.236  0.00  0.00    +0.241 C 
ATOM      3  O   ASN A   3      28.636  41.644   0.962  0.00  0.00    -0.273 OA
ATOM      4  N   ARG A   4      27.159  41.916  -0.709  0.00  0.00    -0.297 N 
ATOM      5  H   ARG A   4      26.989  41.858  -1.733  0.00  0.00    +0.150 HD
BRANCH   2   6
ATOM      6  CA  ASN A   3      29.400  41.174  -1.260  0.00  0.00    +0.158 C 
BRANCH   6   8
ATOM      7  C   ASP A   2      28.798  41.525  -3.577  0.00  0.00    +0.241 C 
ATOM      8  N   ASN A   3      29.442  41.948  -2.493  0.00  0.00    -0.297 N 
ATOM      9  H   ASN A   3      29.979  42.838  -2.526  0.00  0.00    +0.150 HD
ATOM     10  O   ASP A   2      28.093  40.511  -3.588  0.00  0.00    -0.273 OA
BRANCH   7  11
ATOM     11  CA  ASP A   2      28.962  42.363  -4.836  0.00  0.00    +0.160 C 
BRANCH  11  14
ATOM     12  C   ASN A   1      28.038  44.448  -3.956  0.00  0.00    +0.239 C 
ATOM     13  O   ASN A   1      27.005  43.903  -3.545  0.00  0.00    -0.274 OA
ATOM     14  N   ASP A   2      29.015  43.794  -4.573  0.00  0.00    -0.297 N 
ATOM     15  H   ASP A   2      29.853  44.326  -4.881  0.00  0.00    +0.150 HD
BRANCH  12  16
ATOM     16  CA  ASN A   1      28.268  45.947  -3.769  0.00  0.00    +0.154 C 
BRANCH  16  17
ATOM     17  N   ASN A   1      28.840  46.556  -4.966  0.00  0.00    -0.238 NA
ATOM     18  H   ASN A   1      29.735  47.081  -4.889  0.00  0.00    +0.142 HD
ENDBRANCH  16  17
BRANCH  16  19
ATOM     19  CB  ASN A   1      26.947  46.614  -3.407  0.00  0.00    +0.111 C 
BRANCH  19  20
ATOM     20  CG  ASN A   1      27.129  48.012  -2.890  0.00  0.00    +0.221 C 
ATOM     21  OD1 ASN A   1      27.942  48.259  -1.998  0.00  0.00    -0.275 OA
ATOM     22  ND2 ASN A   1      26.363  48.939  -3.436  0.00  0.00    -0.329 N 
ATOM     23 HD21 ASN A   1      26.432  49.926  -3.115  0.00  0.00    +0.145 HD
ATOM     24 HD22 ASN A   1      25.691  48.682  -4.187  0.00  0.00    +0.145 HD
ENDBRANCH  19  20
ENDBRANCH  16  19
ENDBRANCH  12  16
ENDBRANCH  11  14
BRANCH  11  25
ATOM     25  CB  ASP A   2      30.246  41.897  -5.538  0.00  0.00    +0.143 C 
BRANCH  25  26
ATOM     26  CG  ASP A   2      30.566  42.703  -6.770  0.00  0.00    +0.367 C 
ATOM     27  OD2 ASP A   2      31.049  43.849  -6.628  0.00  0.00    -0.246 OA
ATOM     28  OD1 ASP A   2      30.319  42.190  -7.881  0.00  0.00    -0.246 OA
ENDBRANCH  25  26
ENDBRANCH  11  25
ENDBRANCH   7  11
ENDBRANCH   6   8
BRANCH   6  29
ATOM     29  CB  ASN A   3      30.803  41.155  -0.643  0.00  0.00    +0.114 C 
BRANCH  29  30
ATOM     30  CG  ASN A   3      31.858  40.649  -1.627  0.00  0.00    +0.222 C 
ATOM     31  ND2 ASN A   3      32.875  41.466  -1.878  0.00  0.00    -0.329 N 
ATOM     32 HD21 ASN A   3      32.930  42.389  -1.402  0.00  0.00    +0.145 HD
ATOM     33 HD22 ASN A   3      33.616  41.182  -2.550  0.00  0.00    +0.145 HD
ATOM     34  OD1 ASN A   3      31.748  39.544  -2.166  0.00  0.00    -0.275 OA
ENDBRANCH  29  30
ENDBRANCH   6  29
ENDBRANCH   2   6
ENDBRANCH   1   4
BRANCH   1  35
ATOM     35  C   ARG A   4      25.139  41.165   0.513  0.00  0.00    +0.241 C 
ATOM     36  O   ARG A   4      24.272  41.274   1.386  0.00  0.00    -0.273 OA
ATOM     37  N   HIS A   5      25.328  40.055  -0.197  0.00  0.00    -0.297 N 
ATOM     38  H   HIS A   5      26.109  40.032  -0.883  0.00  0.00    +0.150 HD
BRANCH  37  39
ATOM     39  CA  HIS A   5      24.493  38.874  -0.058  0.00  0.00    +0.155 C 
BRANCH  39  40
ATOM     40  C   HIS A   5      24.430  38.266   1.339  0.00  0.00    +0.241 C 
ATOM     41  N   GLY A   6      25.580  38.017   1.953  0.00  0.00    -0.295 N 
ATOM     42  H   GLY A   6      26.478  38.251   1.484  0.00  0.00    +0.150 HD
ATOM     43  O   HIS A   5      23.342  38.033   1.860  0.00  0.00    -0.273 OA
BRANCH  41  44
ATOM     44  CA  GLY A   6      25.590  37.419   3.279  0.00  0.00    +0.176 C 
BRANCH  44  45
ATOM     45  C   GLY A   6      24.901  38.285   4.316  0.00  0.00    +0.243 C 
ATOM     46  O   GLY A   6      24.186  37.791   5.190  0.00  0.00    -0.273 OA
ATOM     47  N   THR A   7      25.117  39.590   4.220  0.00  0.00    -0.296 N 
ATOM     48  H   THR A   7      25.732  39.951   3.463  0.00  0.00    +0.150 HD
BRANCH  47  49
ATOM     49  CA  THR A   7      24.509  40.530   5.156  0.00  0.00    +0.164 C 
BRANCH  49  50
ATOM     50  C   THR A   7      22.982  40.520   5.033  0.00  0.00    +0.229 C 
ATOM     51  O   THR A   7      22.257  40.620   6.029  0.00  0.00    -0.286 OA
ENDBRANCH  49  50
BRANCH  49  52
ATOM     52  CB  THR A   7      25.062  41.960   4.923  0.00  0.00    +0.136 C 
ATOM     53  CG2 THR A   7      24.390  42.961   5.850  0.00  0.00    +0.034 C 
BRANCH  52  54
ATOM     54  OG1 THR A   7      26.470  41.959   5.178  0.00  0.00    -0.382 OA
ATOM     55  HG1 THR A   7      26.915  41.323   4.564  0.00  0.00    +0.210 HD
ENDBRANCH  52  54
ENDBRANCH  49  52
ENDBRANCH  47  49
ENDBRANCH  44  45
ENDBRANCH  41  44
ENDBRANCH  39  40
BRANCH  39  56
ATOM     56  CB  HIS A   5      24.958  37.845  -1.087  0.00  0.00    +0.076 C 
BRANCH  56  57
ATOM     57  CG  HIS A   5      24.031  36.689  -1.263  0.00  0.00    +0.082 A 
ATOM     58  ND1 HIS A   5      24.252  35.469  -0.669  0.00  0.00    -0.227 NA
ATOM     59  CE1 HIS A   5      23.339  34.609  -1.080  0.00  0.00    +0.199 A 
ATOM     60  NE2 HIS A   5      22.528  35.231  -1.913  0.00  0.00    -0.221 NA
ATOM     61  CD2 HIS A   5      22.934  36.536  -2.040  0.00  0.00    +0.115 A 
ENDBRANCH  56  57
ENDBRANCH  39  56
ENDBRANCH  37  39
ENDBRANCH   1  35
BRANCH   1  62
ATOM     62  CB  ARG A   4      25.213  43.381  -0.529  0.00  0.00    +0.033 C 
BRANCH  62  63
ATOM     63  CG  ARG A   4      24.452  42.778  -1.689  0.00  0.00    +0.045 C 
BRANCH  63  64
ATOM     64  CD  ARG A   4      23.642  43.794  -2.440  0.00  0.00    +0.174 C 
BRANCH  64  65
ATOM     65  NE  ARG A   4      22.852  43.144  -3.480  0.00  0.00    -0.265 N 
ATOM     66  HE  ARG A   4      22.920  42.110  -3.568  0.00  0.00    +0.259 HD
ATOM     67  CZ  ARG A   4      22.050  43.788  -4.323  0.00  0.00    +0.342 C 
ATOM     68  NH2 ARG A   4      21.942  45.114  -4.248  0.00  0.00    -0.292 N 
ATOM     69 HH21 ARG A   4      22.483  45.640  -3.533  0.00  0.00    +0.255 HD
ATOM     70 HH22 ARG A   4      21.316  45.623  -4.905  0.00  0.00    +0.255 HD
ATOM     71  NH1 ARG A   4      21.343  43.109  -5.228  0.00  0.00    -0.292 N 
ATOM     72 HH11 ARG A   4      21.418  42.073  -5.276  0.00  0.00    +0.255 HD
ATOM     73 HH12 ARG A   4      20.717  43.616  -5.886  0.00  0.00    +0.255 HD
ENDBRANCH  64  65
ENDBRANCH  63  64
ENDBRANCH  62  63
ENDBRANCH   1  62
TORSDOF 28
REMARK  Name = ../refined-set-2016/4ryd/4ryd_pocket.pdb
REMARK  255 active torsions:
REMARK  status: ('A' for Active; 'I' for Inactive)
REMARK    1  A    between atoms: _1  and  _3
REMARK    2  A    between atoms: _3  and  _4
REMARK    3  A    between atoms: _3  and  _6
REMARK    4  A    between atoms: _6  and  _7
REMARK    5  A    between atoms: _10  and  _12
REMARK    6  A    between atoms: _12  and  _13
REMARK    7  A    between atoms: _12  and  _15
REMARK    8  A    between atoms: _15  and  _16
REMARK    9  A    between atoms: _19  and  _21
REMARK   10  A    between atoms: _21  and  _22
REMARK   11  A    between atoms: _24  and  _26
REMARK   12  A    between atoms: _26  and  _27
REMARK   13  A    between atoms: _26  and  _29
REMARK   14  A    between atoms: _29  and  _30
REMARK   15  A    between atoms: _35  and  _37
REMARK   16  A    between atoms: _37  and  _38
REMARK   17  A    between atoms: _37  and  _40
REMARK   18  A    between atoms: _40  and  _41
REMARK   19  A    between atoms: _41  and  _42
REMARK   20  A    between atoms: _42  and  _43
REMARK   21  A    between atoms: _52  and  _54
REMARK   22  A    between atoms: _54  and  _55
REMARK   23  A    between atoms: _54  and  _57
REMARK   24  A    between atoms: _57  and  _58
REMARK   25  A    between atoms: _61  and  _63
REMARK   26  A    between atoms: _63  and  _64
REMARK   27  A    between atoms: _63  and  _66
REMARK   28  A    between atoms: _66  and  _67
REMARK   29  A    between atoms: _72  and  _74
REMARK   30  A    between atoms: _74  and  _75
REMARK   31  A    between atoms: _74  and  _77
REMARK   32  A    between atoms: _77  and  _78
REMARK   33  A    between atoms: _81  and  _83
REMARK   34  A    between atoms: _83  and  _84
REMARK   35  A    between atoms: _83  and  _86
REMARK   36  A    between atoms: _86  and  _87
REMARK   37  A    between atoms: _92  and  _94
REMARK   38  A    between atoms: _94  and  _95
REMARK   39  A    between atoms: _94  and  _97
REMARK   40  A    between atoms: _97  and  _98
REMARK   41  A    between atoms: _98  and  _99
REMARK   42  A    between atoms: _99  and  _100
REMARK   43  A    between atoms: _109  and  _111
REMARK   44  A    between atoms: _111  and  _112
REMARK   45  A    between atoms: _111  and  _114
REMARK   46  A    between atoms: _114  and  _115
REMARK   47  A    between atoms: _120  and  _122
REMARK   48  A    between atoms: _122  and  _123
REMARK   49  A    between atoms: _125  and  _127
REMARK   50  A    between atoms: _127  and  _128
REMARK   51  A    between atoms: _127  and  _130
REMARK   52  A    between atoms: _130  and  _131
REMARK   53  A    between atoms: _134  and  _136
REMARK   54  A    between atoms: _136  and  _137
REMARK   55  A    between atoms: _136  and  _139
REMARK   56  A    between atoms: _141  and  _143
REMARK   57  A    between atoms: _143  and  _144
REMARK   58  A    between atoms: _143  and  _146
REMARK   59  A    between atoms: _146  and  _147
REMARK   60  A    between atoms: _147  and  _148
REMARK   61  A    between atoms: _148  and  _149
REMARK   62  A    between atoms: _158  and  _160
REMARK   63  A    between atoms: _160  and  _161
REMARK   64  A    between atoms: _160  and  _163
REMARK   65  A    between atoms: _163  and  _164
REMARK   66  A    between atoms: _164  and  _165
REMARK   67  A    between atoms: _167  and  _169
REMARK   68  A    between atoms: _169  and  _170
REMARK   69  A    between atoms: _169  and  _172
REMARK   70  A    between atoms: _172  and  _173
REMARK   71  A    between atoms: _176  and  _178
REMARK   72  A    between atoms: _178  and  _179
REMARK   73  A    between atoms: _178  and  _181
REMARK   74  A    between atoms: _181  and  _182
REMARK   75  A    between atoms: _185  and  _187
REMARK   76  A    between atoms: _187  and  _188
REMARK   77  A    between atoms: _190  and  _192
REMARK   78  A    between atoms: _192  and  _193
REMARK   79  A    between atoms: _192  and  _195
REMARK   80  A    between atoms: _195  and  _196
REMARK   81  A    between atoms: _196  and  _197
REMARK   82  A    between atoms: _200  and  _202
REMARK   83  A    between atoms: _202  and  _203
REMARK   84  A    between atoms: _202  and  _205
REMARK   85  A    between atoms: _208  and  _210
REMARK   86  A    between atoms: _210  and  _211
REMARK   87  A    between atoms: _210  and  _213
REMARK   88  A    between atoms: _213  and  _214
REMARK   89  A    between atoms: _217  and  _219
REMARK   90  A    between atoms: _219  and  _220
REMARK   91  A    between atoms: _219  and  _222
REMARK   92  A    between atoms: _222  and  _223
REMARK   93  A    between atoms: _226  and  _228
REMARK   94  A    between atoms: _228  and  _229
REMARK   95  A    between atoms: _232  and  _234
REMARK   96  A    between atoms: _234  and  _235
REMARK   97  A    between atoms: _234  and  _237
REMARK   98  A    between atoms: _240  and  _242
REMARK   99  A    between atoms: _242  and  _243
REMARK  100  A    between atoms: _242  and  _245
REMARK  101  A    between atoms: _245  and  _246
REMARK  102  A    between atoms: _246  and  _247
REMARK  103  A    between atoms: _250  and  _252
REMARK  104  A    between atoms: _252  and  _253
REMARK  105  A    between atoms: _256  and  _258
REMARK  106  A    between atoms: _258  and  _259
REMARK  107  A    between atoms: _262  and  _264
REMARK  108  A    between atoms: _264  and  _265
REMARK  109  A    between atoms: _264  and  _267
REMARK  110  A    between atoms: _267  and  _268
REMARK  111  A    between atoms: _270  and  _272
REMARK  112  A    between atoms: _272  and  _273
REMARK  113  A    between atoms: _272  and  _275
REMARK  114  A    between atoms: _275  and  _276
REMARK  115  A    between atoms: _286  and  _288
REMARK  116  A    between atoms: _288  and  _289
REMARK  117  A    between atoms: _292  and  _293
REMARK  118  A    between atoms: _298  and  _300
REMARK  119  A    between atoms: _300  and  _301
REMARK  120  A    between atoms: _300  and  _303
REMARK  121  A    between atoms: _303  and  _304
REMARK  122  A    between atoms: _304  and  _305
REMARK  123  A    between atoms: _308  and  _310
REMARK  124  A    between atoms: _310  and  _311
REMARK  125  A    between atoms: _310  and  _313
REMARK  126  A    between atoms: _313  and  _314
REMARK  127  A    between atoms: _317  and  _319
REMARK  128  A    between atoms: _319  and  _320
REMARK  129  A    between atoms: _319  and  _322
REMARK  130  A    between atoms: _322  and  _323
REMARK  131  A    between atoms: _326  and  _328
REMARK  132  A    between atoms: _328  and  _329
REMARK  133  A    between atoms: _328  and  _331
REMARK  134  A    between atoms: _331  and  _332
REMARK  135  A    between atoms: _335  and  _337
REMARK  136  A    between atoms: _337  and  _338
REMARK  137  A    between atoms: _337  and  _340
REMARK  138  A    between atoms: _343  and  _345
REMARK  139  A    between atoms: _345  and  _346
REMARK  140  A    between atoms: _345  and  _348
REMARK  141  A    between atoms: _348  and  _349
REMARK  142  A    between atoms: _352  and  _354
REMARK  143  A    between atoms: _354  and  _355
REMARK  144  A    between atoms: _358  and  _359
REMARK  145  A    between atoms: _364  and  _366
REMARK  146  A    between atoms: _366  and  _367
REMARK  147  A    between atoms: _370  and  _372
REMARK  148  A    between atoms: _372  and  _373
REMARK  149  A    between atoms: _372  and  _375
REMARK  150  A    between atoms: _375  and  _376
REMARK  151  A    between atoms: _376  and  _377
REMARK  152  A    between atoms: _377  and  _378
REMARK  153  A    between atoms: _387  and  _389
REMARK  154  A    between atoms: _389  and  _390
REMARK  155  A    between atoms: _389  and  _392
REMARK  156  A    between atoms: _392  and  _393
REMARK  157  A    between atoms: _396  and  _398
REMARK  158  A    between atoms: _398  and  _399
REMARK  159  A    between atoms: _402  and  _404
REMARK  160  A    between atoms: _404  and  _405
REMARK  161  A    between atoms: _404  and  _407
REMARK  162  A    between atoms: _407  and  _408
REMARK  163  A    between atoms: _408  and  _409
REMARK  164  A    between atoms: _412  and  _414
REMARK  165  A    between atoms: _414  and  _415
REMARK  166  A    between atoms: _414  and  _417
REMARK  167  A    between atoms: _417  and  _418
REMARK  168  A    between atoms: _428  and  _430
REMARK  169  A    between atoms: _430  and  _431
REMARK  170  A    between atoms: _434  and  _436
REMARK  171  A    between atoms: _436  and  _437
REMARK  172  A    between atoms: _436  and  _439
REMARK  173  A    between atoms: _439  and  _440
REMARK  174  A    between atoms: _442  and  _444
REMARK  175  A    between atoms: _444  and  _445
REMARK  176  A    between atoms: _447  and  _449
REMARK  177  A    between atoms: _449  and  _450
REMARK  178  A    between atoms: _449  and  _452
REMARK  179  A    between atoms: _452  and  _453
REMARK  180  A    between atoms: _458  and  _460
REMARK  181  A    between atoms: _460  and  _461
REMARK  182  A    between atoms: _463  and  _465
REMARK  183  A    between atoms: _465  and  _466
REMARK  184  A    between atoms: _465  and  _468
REMARK  185  A    between atoms: _468  and  _469
REMARK  186  A    between atoms: _469  and  _471
REMARK  187  A    between atoms: _471  and  CA_629
REMARK  188  A    between atoms: _472  and  _474
REMARK  189  A    between atoms: _474  and  _475
REMARK  190  A    between atoms: _474  and  _477
REMARK  191  A    between atoms: _477  and  _478
REMARK  192  A    between atoms: _480  and  _482
REMARK  193  A    between atoms: _482  and  _483
REMARK  194  A    between atoms: _482  and  _485
REMARK  195  A    between atoms: _487  and  _489
REMARK  196  A    between atoms: _489  and  _490
REMARK  197  A    between atoms: _489  and  _492
REMARK  198  A    between atoms: _494  and  _496
REMARK  199  A    between atoms: _496  and  _497
REMARK  200  A    between atoms: _496  and  _499
REMARK  201  A    between atoms: _499  and  _500
REMARK  202  A    between atoms: _503  and  _505
REMARK  203  A    between atoms: _505  and  _506
REMARK  204  A    between atoms: _508  and  _510
REMARK  205  A    between atoms: _510  and  _511
REMARK  206  A    between atoms: _510  and  _513
REMARK  207  A    between atoms: _513  and  _514
REMARK  208  A    between atoms: _519  and  _520
REMARK  209  A    between atoms: _522  and  _524
REMARK  210  A    between atoms: _524  and  _525
REMARK  211  A    between atoms: _524  and  _527
REMARK  212  A    between atoms: _527  and  _528
REMARK  213  A    between atoms: _531  and  _533
REMARK  214  A    between atoms: _533  and  _534
REMARK  215  A    between atoms: _533  and  _536
REMARK  216  A    between atoms: _536  and  _537
REMARK  217  A    between atoms: _542  and  _544
REMARK  218  A    between atoms: _544  and  _545
REMARK  219  A    between atoms: _544  and  _547
REMARK  220  A    between atoms: _547  and  _548
REMARK  221  A    between atoms: _551  and  _553
REMARK  222  A    between atoms: _553  and  _554
REMARK  223  A    between atoms: _553  and  _556
REMARK  224  A    between atoms: _556  and  _557
REMARK  225  A    between atoms: _559  and  _561
REMARK  226  A    between atoms: _561  and  _562
REMARK  227  A    between atoms: _561  and  _564
REMARK  228  A    between atoms: _564  and  _565
REMARK  229  A    between atoms: _568  and  _570
REMARK  230  A    between atoms: _570  and  _571
REMARK  231  A    between atoms: _570  and  _573
REMARK  232  A    between atoms: _573  and  _574
REMARK  233  A    between atoms: _574  and  _575
REMARK  234  A    between atoms: _578  and  _580
REMARK  235  A    between atoms: _580  and  _581
REMARK  236  A    between atoms: _580  and  _583
REMARK  237  A    between atoms: _583  and  _584
REMARK  238  A    between atoms: _587  and  _589
REMARK  239  A    between atoms: _589  and  _590
REMARK  240  A    between atoms: _592  and  _594
REMARK  241  A    between atoms: _594  and  _595
REMARK  242  A    between atoms: _594  and  _597
REMARK  243  A    between atoms: _597  and  _598
REMARK  244  A    between atoms: _601  and  _603
REMARK  245  A    between atoms: _603  and  _604
REMARK  246  A    between atoms: _603  and  _606
REMARK  247  A    between atoms: _606  and  _607
REMARK  248  A    between atoms: _609  and  _611
REMARK  249  A    between atoms: _611  and  _612
REMARK  250  A    between atoms: _615  and  _617
REMARK  251  A    between atoms: _617  and  _618
REMARK  252  A    between atoms: _617  and  _620
REMARK  253  A    between atoms: _620  and  _621
REMARK  254  A    between atoms: _623  and  _625
REMARK  255  A    between atoms: _625  and  _626
REMARK                            x       y       z     vdW  Elec       q    Type
REMARK                         _______ _______ _______ _____ _____    ______ ____
ROOT
ATOM      1  CA  CYS A   1      20.677  36.697   4.625  0.00  0.00    +0.145 C 
ENDROOT
BRANCH   1   2
ATOM      2  N   CYS A   1      21.156  37.953   4.059  0.00  0.00    -0.238 NA
ATOM      3  H   CYS A   1      22.042  37.970   3.514  0.00  0.00    +0.142 HD
ENDBRANCH   1   2
BRANCH   1   4
ATOM      4  C   CYS A   1      20.718  36.749   6.159  0.00  0.00    +0.225 C 
ATOM      5  O   CYS A   1      19.780  36.297   6.820  0.00  0.00    -0.287 OA
ENDBRANCH   1   4
BRANCH   1   6
ATOM      6  CB  CYS A   1      21.513  35.519   4.086  0.00  0.00    +0.094 C 
ATOM      7  SG  CYS A   1      21.267  35.224   2.288  0.00  0.00    -0.080 S 
ENDBRANCH   1   6
TORSDOF 3
REMARK  Name = ../refined-set-2016/4ryd/4ryd_pocket.pdb
REMARK  255 active torsions:
REMARK  status: ('A' for Active; 'I' for Inactive)
REMARK    1  A    between atoms: _1  and  _3
REMARK    2  A    between atoms: _3  and  _4
REMARK    3  A    between atoms: _3  and  _6
REMARK    4  A    between atoms: _6  and  _7
REMARK    5  A    between atoms: _10  and  _12
REMARK    6  A    between atoms: _12  and  _13
REMARK    7  A    between atoms: _12  and  _15
REMARK    8  A    between atoms: _15  and  _16
REMARK    9  A    between atoms: _19  and  _21
REMARK   10  A    between atoms: _21  and  _22
REMARK   11  A    between atoms: _24  and  _26
REMARK   12  A    between atoms: _26  and  _27
REMARK   13  A    between atoms: _26  and  _29
REMARK   14  A    between atoms: _29  and  _30
REMARK   15  A    between atoms: _35  and  _37
REMARK   16  A    between atoms: _37  and  _38
REMARK   17  A    between atoms: _37  and  _40
REMARK   18  A    between atoms: _40  and  _41
REMARK   19  A    between atoms: _41  and  _42
REMARK   20  A    between atoms: _42  and  _43
REMARK   21  A    between atoms: _52  and  _54
REMARK   22  A    between atoms: _54  and  _55
REMARK   23  A    between atoms: _54  and  _57
REMARK   24  A    between atoms: _57  and  _58
REMARK   25  A    between atoms: _61  and  _63
REMARK   26  A    between atoms: _63  and  _64
REMARK   27  A    between atoms: _63  and  _66
REMARK   28  A    between atoms: _66  and  _67
REMARK   29  A    between atoms: _72  and  _74
REMARK   30  A    between atoms: _74  and  _75
REMARK   31  A    between atoms: _74  and  _77
REMARK   32  A    between atoms: _77  and  _78
REMARK   33  A    between atoms: _81  and  _83
REMARK   34  A    between atoms: _83  and  _84
REMARK   35  A    between atoms: _83  and  _86
REMARK   36  A    between atoms: _86  and  _87
REMARK   37  A    between atoms: _92  and  _94
REMARK   38  A    between atoms: _94  and  _95
REMARK   39  A    between atoms: _94  and  _97
REMARK   40  A    between atoms: _97  and  _98
REMARK   41  A    between atoms: _98  and  _99
REMARK   42  A    between atoms: _99  and  _100
REMARK   43  A    between atoms: _109  and  _111
REMARK   44  A    between atoms: _111  and  _112
REMARK   45  A    between atoms: _111  and  _114
REMARK   46  A    between atoms: _114  and  _115
REMARK   47  A    between atoms: _120  and  _122
REMARK   48  A    between atoms: _122  and  _123
REMARK   49  A    between atoms: _125  and  _127
REMARK   50  A    between atoms: _127  and  _128
REMARK   51  A    between atoms: _127  and  _130
REMARK   52  A    between atoms: _130  and  _131
REMARK   53  A    between atoms: _134  and  _136
REMARK   54  A    between atoms: _136  and  _137
REMARK   55  A    between atoms: _136  and  _139
REMARK   56  A    between atoms: _141  and  _143
REMARK   57  A    between atoms: _143  and  _144
REMARK   58  A    between atoms: _143  and  _146
REMARK   59  A    between atoms: _146  and  _147
REMARK   60  A    between atoms: _147  and  _148
REMARK   61  A    between atoms: _148  and  _149
REMARK   62  A    between atoms: _158  and  _160
REMARK   63  A    between atoms: _160  and  _161
REMARK   64  A    between atoms: _160  and  _163
REMARK   65  A    between atoms: _163  and  _164
REMARK   66  A    between atoms: _164  and  _165
REMARK   67  A    between atoms: _167  and  _169
REMARK   68  A    between atoms: _169  and  _170
REMARK   69  A    between atoms: _169  and  _172
REMARK   70  A    between atoms: _172  and  _173
REMARK   71  A    between atoms: _176  and  _178
REMARK   72  A    between atoms: _178  and  _179
REMARK   73  A    between atoms: _178  and  _181
REMARK   74  A    between atoms: _181  and  _182
REMARK   75  A    between atoms: _185  and  _187
REMARK   76  A    between atoms: _187  and  _188
REMARK   77  A    between atoms: _190  and  _192
REMARK   78  A    between atoms: _192  and  _193
REMARK   79  A    between atoms: _192  and  _195
REMARK   80  A    between atoms: _195  and  _196
REMARK   81  A    between atoms: _196  and  _197
REMARK   82  A    between atoms: _200  and  _202
REMARK   83  A    between atoms: _202  and  _203
REMARK   84  A    between atoms: _202  and  _205
REMARK   85  A    between atoms: _208  and  _210
REMARK   86  A    between atoms: _210  and  _211
REMARK   87  A    between atoms: _210  and  _213
REMARK   88  A    between atoms: _213  and  _214
REMARK   89  A    between atoms: _217  and  _219
REMARK   90  A    between atoms: _219  and  _220
REMARK   91  A    between atoms: _219  and  _222
REMARK   92  A    between atoms: _222  and  _223
REMARK   93  A    between atoms: _226  and  _228
REMARK   94  A    between atoms: _228  and  _229
REMARK   95  A    between atoms: _232  and  _234
REMARK   96  A    between atoms: _234  and  _235
REMARK   97  A    between atoms: _234  and  _237
REMARK   98  A    between atoms: _240  and  _242
REMARK   99  A    between atoms: _242  and  _243
REMARK  100  A    between atoms: _242  and  _245
REMARK  101  A    between atoms: _245  and  _246
REMARK  102  A    between atoms: _246  and  _247
REMARK  103  A    between atoms: _250  and  _252
REMARK  104  A    between atoms: _252  and  _253
REMARK  105  A    between atoms: _256  and  _258
REMARK  106  A    between atoms: _258  and  _259
REMARK  107  A    between atoms: _262  and  _264
REMARK  108  A    between atoms: _264  and  _265
REMARK  109  A    between atoms: _264  and  _267
REMARK  110  A    between atoms: _267  and  _268
REMARK  111  A    between atoms: _270  and  _272
REMARK  112  A    between atoms: _272  and  _273
REMARK  113  A    between atoms: _272  and  _275
REMARK  114  A    between atoms: _275  and  _276
REMARK  115  A    between atoms: _286  and  _288
REMARK  116  A    between atoms: _288  and  _289
REMARK  117  A    between atoms: _292  and  _293
REMARK  118  A    between atoms: _298  and  _300
REMARK  119  A    between atoms: _300  and  _301
REMARK  120  A    between atoms: _300  and  _303
REMARK  121  A    between atoms: _303  and  _304
REMARK  122  A    between atoms: _304  and  _305
REMARK  123  A    between atoms: _308  and  _310
REMARK  124  A    between atoms: _310  and  _311
REMARK  125  A    between atoms: _310  and  _313
REMARK  126  A    between atoms: _313  and  _314
REMARK  127  A    between atoms: _317  and  _319
REMARK  128  A    between atoms: _319  and  _320
REMARK  129  A    between atoms: _319  and  _322
REMARK  130  A    between atoms: _322  and  _323
REMARK  131  A    between atoms: _326  and  _328
REMARK  132  A    between atoms: _328  and  _329
REMARK  133  A    between atoms: _328  and  _331
REMARK  134  A    between atoms: _331  and  _332
REMARK  135  A    between atoms: _335  and  _337
REMARK  136  A    between atoms: _337  and  _338
REMARK  137  A    between atoms: _337  and  _340
REMARK  138  A    between atoms: _343  and  _345
REMARK  139  A    between atoms: _345  and  _346
REMARK  140  A    between atoms: _345  and  _348
REMARK  141  A    between atoms: _348  and  _349
REMARK  142  A    between atoms: _352  and  _354
REMARK  143  A    between atoms: _354  and  _355
REMARK  144  A    between atoms: _358  and  _359
REMARK  145  A    between atoms: _364  and  _366
REMARK  146  A    between atoms: _366  and  _367
REMARK  147  A    between atoms: _370  and  _372
REMARK  148  A    between atoms: _372  and  _373
REMARK  149  A    between atoms: _372  and  _375
REMARK  150  A    between atoms: _375  and  _376
REMARK  151  A    between atoms: _376  and  _377
REMARK  152  A    between atoms: _377  and  _378
REMARK  153  A    between atoms: _387  and  _389
REMARK  154  A    between atoms: _389  and  _390
REMARK  155  A    between atoms: _389  and  _392
REMARK  156  A    between atoms: _392  and  _393
REMARK  157  A    between atoms: _396  and  _398
REMARK  158  A    between atoms: _398  and  _399
REMARK  159  A    between atoms: _402  and  _404
REMARK  160  A    between atoms: _404  and  _405
REMARK  161  A    between atoms: _404  and  _407
REMARK  162  A    between atoms: _407  and  _408
REMARK  163  A    between atoms: _408  and  _409
REMARK  164  A    between atoms: _412  and  _414
REMARK  165  A    between atoms: _414  and  _415
REMARK  166  A    between atoms: _414  and  _417
REMARK  167  A    between atoms: _417  and  _418
REMARK  168  A    between atoms: _428  and  _430
REMARK  169  A    between atoms: _430  and  _431
REMARK  170  A    between atoms: _434  and  _436
REMARK  171  A    between atoms: _436  and  _437
REMARK  172  A    between atoms: _436  and  _439
REMARK  173  A    between atoms: _439  and  _440
REMARK  174  A    between atoms: _442  and  _444
REMARK  175  A    between atoms: _444  and  _445
REMARK  176  A    between atoms: _447  and  _449
REMARK  177  A    between atoms: _449  and  _450
REMARK  178  A    between atoms: _449  and  _452
REMARK  179  A    between atoms: _452  and  _453
REMARK  180  A    between atoms: _458  and  _460
REMARK  181  A    between atoms: _460  and  _461
REMARK  182  A    between atoms: _463  and  _465
REMARK  183  A    between atoms: _465  and  _466
REMARK  184  A    between atoms: _465  and  _468
REMARK  185  A    between atoms: _468  and  _469
REMARK  186  A    between atoms: _469  and  _471
REMARK  187  A    between atoms: _471  and  CA_629
REMARK  188  A    between atoms: _472  and  _474
REMARK  189  A    between atoms: _474  and  _475
REMARK  190  A    between atoms: _474  and  _477
REMARK  191  A    between atoms: _477  and  _478
REMARK  192  A    between atoms: _480  and  _482
REMARK  193  A    between atoms: _482  and  _483
REMARK  194  A    between atoms: _482  and  _485
REMARK  195  A    between atoms: _487  and  _489
REMARK  196  A    between atoms: _489  and  _490
REMARK  197  A    between atoms: _489  and  _492
REMARK  198  A    between atoms: _494  and  _496
REMARK  199  A    between atoms: _496  and  _497
REMARK  200  A    between atoms: _496  and  _499
REMARK  201  A    between atoms: _499  and  _500
REMARK  202  A    between atoms: _503  and  _505
REMARK  203  A    between atoms: _505  and  _506
REMARK  204  A    between atoms: _508  and  _510
REMARK  205  A    between atoms: _510  and  _511
REMARK  206  A    between atoms: _510  and  _513
REMARK  207  A    between atoms: _513  and  _514
REMARK  208  A    between atoms: _519  and  _520
REMARK  209  A    between atoms: _522  and  _524
REMARK  210  A    between atoms: _524  and  _525
REMARK  211  A    between atoms: _524  and  _527
REMARK  212  A    between atoms: _527  and  _528
REMARK  213  A    between atoms: _531  and  _533
REMARK  214  A    between atoms: _533  and  _534
REMARK  215  A    between atoms: _533  and  _536
REMARK  216  A    between atoms: _536  and  _537
REMARK  217  A    between atoms: _542  and  _544
REMARK  218  A    between atoms: _544  and  _545
REMARK  219  A    between atoms: _544  and  _547
REMARK  220  A    between atoms: _547  and  _548
REMARK  221  A    between atoms: _551  and  _553
REMARK  222  A    between atoms: _553  and  _554
REMARK  223  A    between atoms: _553  and  _556
REMARK  224  A    between atoms: _556  and  _557
REMARK  225  A    between atoms: _559  and  _561
REMARK  226  A    between atoms: _561  and  _562
REMARK  227  A    between atoms: _561  and  _564
REMARK  228  A    between atoms: _564  and  _565
REMARK  229  A    between atoms: _568  and  _570
REMARK  230  A    between atoms: _570  and  _571
REMARK  231  A    between atoms: _570  and  _573
REMARK  232  A    between atoms: _573  and  _574
REMARK  233  A    between atoms: _574  and  _575
REMARK  234  A    between atoms: _578  and  _580
REMARK  235  A    between atoms: _580  and  _581
REMARK  236  A    between atoms: _580  and  _583
REMARK  237  A    between atoms: _583  and  _584
REMARK  238  A    between atoms: _587  and  _589
REMARK  239  A    between atoms: _589  and  _590
REMARK  240  A    between atoms: _592  and  _594
REMARK  241  A    between atoms: _594  and  _595
REMARK  242  A    between atoms: _594  and  _597
REMARK  243  A    between atoms: _597  and  _598
REMARK  244  A    between atoms: _601  and  _603
REMARK  245  A    between atoms: _603  and  _604
REMARK  246  A    between atoms: _603  and  _606
REMARK  247  A    between atoms: _606  and  _607
REMARK  248  A    between atoms: _609  and  _611
REMARK  249  A    between atoms: _611  and  _612
REMARK  250  A    between atoms: _615  and  _617
REMARK  251  A    between atoms: _617  and  _618
REMARK  252  A    between atoms: _617  and  _620
REMARK  253  A    between atoms: _620  and  _621
REMARK  254  A    between atoms: _623  and  _625
REMARK  255  A    between atoms: _625  and  _626
REMARK                            x       y       z     vdW  Elec       q    Type
REMARK                         _______ _______ _______ _____ _____    ______ ____
ROOT
ATOM      1  C   GLU A   6      37.515  29.565  -3.620  0.00  0.00    +0.241 C 
ATOM      2  O   GLU A   6      37.998  29.362  -2.507  0.00  0.00    -0.273 OA
ATOM      3  N   VAL A   7      36.346  29.059  -3.996  0.00  0.00    -0.297 N 
ATOM      4  H   VAL A   7      35.973  29.278  -4.942  0.00  0.00    +0.150 HD
ENDROOT
BRANCH   3   5
ATOM      5  CA  VAL A   7      35.577  28.200  -3.100  0.00  0.00    +0.149 C 
BRANCH   5   6
ATOM      6  C   VAL A   7      35.982  26.742  -3.319  0.00  0.00    +0.241 C 
ATOM      7  N   THR A   8      37.013  26.315  -2.600  0.00  0.00    -0.295 N 
ATOM      8  H   THR A   8      37.471  26.975  -1.940  0.00  0.00    +0.150 HD
ATOM      9  O   VAL A   7      35.375  26.024  -4.115  0.00  0.00    -0.273 OA
BRANCH   7  10
ATOM     10  CA  THR A   8      37.524  24.958  -2.703  0.00  0.00    +0.176 C 
BRANCH  10  11
ATOM     11  C   THR A   8      36.816  24.034  -1.721  0.00  0.00    +0.243 C 
ATOM     12  O   THR A   8      36.031  24.467  -0.874  0.00  0.00    -0.273 OA
ATOM     13  N   ASP A   9      37.123  22.751  -1.833  0.00  0.00    -0.296 N 
ATOM     14  H   ASP A   9      37.783  22.453  -2.579  0.00  0.00    +0.150 HD
BRANCH  13  15
ATOM     15  CA  ASP A   9      36.566  21.753  -0.947  0.00  0.00    +0.160 C 
BRANCH  15  16
ATOM     16  C   ASP A   9      37.008  22.091   0.486  0.00  0.00    +0.241 C 
ATOM     17  O   ASP A   9      36.216  22.030   1.422  0.00  0.00    -0.273 OA
ATOM     18  N   ALA A  10      38.274  22.459   0.649  0.00  0.00    -0.297 N 
ATOM     19  H   ALA A  10      38.901  22.501  -0.180  0.00  0.00    +0.150 HD
BRANCH  18  20
ATOM     20  CA  ALA A  10      38.807  22.806   1.967  0.00  0.00    +0.149 C 
ATOM     21  CB  ALA A  10      40.303  23.083   1.872  0.00  0.00    +0.031 C 
BRANCH  20  22
ATOM     22  C   ALA A  10      38.092  24.029   2.538  0.00  0.00    +0.241 C 
ATOM     23  O   ALA A  10      37.797  24.086   3.733  0.00  0.00    -0.273 OA
ATOM     24  N   VAL A  11      37.834  25.015   1.683  0.00  0.00    -0.297 N 
ATOM     25  H   VAL A  11      38.137  24.925   0.692  0.00  0.00    +0.150 HD
BRANCH  24  26
ATOM     26  CA  VAL A  11      37.133  26.220   2.111  0.00  0.00    +0.149 C 
BRANCH  26  27
ATOM     27  C   VAL A  11      35.743  25.839   2.623  0.00  0.00    +0.241 C 
ATOM     28  O   VAL A  11      35.316  26.290   3.688  0.00  0.00    -0.273 OA
ATOM     29  N   GLU A  12      35.049  24.989   1.875  0.00  0.00    -0.297 N 
ATOM     30  H   GLU A  12      35.460  24.624   0.992  0.00  0.00    +0.150 HD
BRANCH  29  31
ATOM     31  CA  GLU A  12      33.711  24.563   2.284  0.00  0.00    +0.149 C 
BRANCH  31  32
ATOM     32  C   GLU A  12      33.756  23.785   3.592  0.00  0.00    +0.241 C 
ATOM     33  O   GLU A  12      32.983  24.059   4.511  0.00  0.00    -0.273 OA
ATOM     34  N   ALA A  13      34.676  22.825   3.676  0.00  0.00    -0.298 N 
ATOM     35  H   ALA A  13      35.323  22.670   2.877  0.00  0.00    +0.150 HD
BRANCH  34  36
ATOM     36  CA  ALA A  13      34.797  21.986   4.863  0.00  0.00    +0.137 C 
ATOM     37  CB  ALA A  13      35.860  20.920   4.638  0.00  0.00    +0.030 C 
BRANCH  36  38
ATOM     38  C   ALA A  13      35.101  22.789   6.128  0.00  0.00    +0.227 C 
ATOM     39  O   ALA A  13      34.564  22.516   7.196  0.00  0.00    -0.286 OA
ENDBRANCH  36  38
ENDBRANCH  34  36
ENDBRANCH  31  32
BRANCH  31  40
ATOM     40  CB  GLU A  12      33.064  23.694   1.191  0.00  0.00    +0.041 C 
BRANCH  40  41
ATOM     41  CG  GLU A  12      32.547  24.499  -0.007  0.00  0.00    +0.116 C 
BRANCH  41  42
ATOM     42  CD  GLU A  12      32.063  23.621  -1.148  0.00  0.00    +0.365 C 
ATOM     43  OE2 GLU A  12      31.554  22.509  -0.874  0.00  0.00    -0.246 OA
ATOM     44  OE1 GLU A  12      32.182  24.044  -2.316  0.00  0.00    -0.246 OA
ENDBRANCH  41  42
ENDBRANCH  40  41
ENDBRANCH  31  40
ENDBRANCH  29  31
ENDBRANCH  26  27
BRANCH  26  45
ATOM     45  CB  VAL A  11      37.015  27.228   0.951  0.00  0.00    +0.027 C 
ATOM     46  CG2 VAL A  11      35.922  28.249   1.229  0.00  0.00    +0.002 C 
ATOM     47  CG1 VAL A  11      38.351  27.962   0.780  0.00  0.00    +0.002 C 
ENDBRANCH  26  45
ENDBRANCH  24  26
ENDBRANCH  20  22
ENDBRANCH  18  20
ENDBRANCH  15  16
BRANCH  15  48
ATOM     48  CB  ASP A   9      37.067  20.372  -1.363  0.00  0.00    +0.143 C 
BRANCH  48  49
ATOM     49  CG  ASP A   9      36.493  19.263  -0.506  0.00  0.00    +0.367 C 
ATOM     50  OD2 ASP A   9      37.242  18.322  -0.158  0.00  0.00    -0.246 OA
ATOM     51  OD1 ASP A   9      35.286  19.326  -0.182  0.00  0.00    -0.246 OA
ENDBRANCH  48  49
ENDBRANCH  15  48
ENDBRANCH  13  15
ENDBRANCH  10  11
BRANCH  10  52
ATOM     52  CB  THR A   8      39.025  24.917  -2.357  0.00  0.00    +0.137 C 
ATOM     53  CG2 THR A   8      39.830  25.825  -3.289  0.00  0.00    +0.034 C 
BRANCH  52  54
ATOM     54  OG1 THR A   8      39.194  25.365  -1.004  0.00  0.00    -0.382 OA
ATOM     55  HG1 THR A   8      40.155  25.344  -0.768  0.00  0.00    +0.210 HD
ENDBRANCH  52  54
ENDBRANCH  10  52
ENDBRANCH   7  10
ENDBRANCH   5   6
BRANCH   5  56
ATOM     56  CB  VAL A   7      34.047  28.332  -3.337  0.00  0.00    +0.027 C 
ATOM     57  CG2 VAL A   7      33.299  27.450  -2.342  0.00  0.00    +0.002 C 
ATOM     58  CG1 VAL A   7      33.598  29.783  -3.181  0.00  0.00    +0.002 C 
ENDBRANCH   5  56
ENDBRANCH   3   5
BRANCH   1  59
ATOM     59  CA  GLU A   6      38.239  30.451  -4.634  0.00  0.00    +0.149 C 
BRANCH  59  61
ATOM     60  C   GLY A   5      37.309  32.543  -3.922  0.00  0.00    +0.243 C 
ATOM     61  N   GLU A   6      38.373  31.760  -4.024  0.00  0.00    -0.297 N 
ATOM     62  H   GLU A   6      39.296  32.081  -3.670  0.00  0.00    +0.150 HD
ATOM     63  O   GLY A   5      36.201  32.201  -4.347  0.00  0.00    -0.273 OA
BRANCH  60  64
ATOM     64  CA  GLY A   5      37.492  33.899  -3.267  0.00  0.00    +0.176 C 
BRANCH  64  67
ATOM     65  C   ASP A   4      35.980  35.384  -2.077  0.00  0.00    +0.241 C 
ATOM     66  O   ASP A   4      36.900  35.926  -1.461  0.00  0.00    -0.273 OA
ATOM     67  N   GLY A   5      36.171  34.415  -2.962  0.00  0.00    -0.295 N 
ATOM     68  H   GLY A   5      35.347  34.012  -3.453  0.00  0.00    +0.150 HD
BRANCH  65  69
ATOM     69  CA  ASP A   4      34.523  35.792  -1.863  0.00  0.00    +0.160 C 
BRANCH  69  71
ATOM     70  C   LEU A   3      33.087  33.832  -1.897  0.00  0.00    +0.241 C 
ATOM     71  N   ASP A   4      33.757  34.747  -1.200  0.00  0.00    -0.297 N 
ATOM     72  H   ASP A   4      33.733  34.715  -0.161  0.00  0.00    +0.150 HD
ATOM     73  O   LEU A   3      33.097  33.786  -3.130  0.00  0.00    -0.273 OA
BRANCH  70  74
ATOM     74  CA  LEU A   3      32.278  32.818  -1.096  0.00  0.00    +0.149 C 
BRANCH  74  76
ATOM     75  C   MET A   2      33.521  31.919   0.774  0.00  0.00    +0.241 C 
ATOM     76  N   LEU A   3      32.630  32.793   0.321  0.00  0.00    -0.297 N 
ATOM     77  H   LEU A   3      32.181  33.463   0.978  0.00  0.00    +0.150 HD
ATOM     78  O   MET A   2      34.093  31.128   0.036  0.00  0.00    -0.273 OA
BRANCH  75  79
ATOM     79  CA  MET A   2      33.848  31.949   2.265  0.00  0.00    +0.149 C 
BRANCH  79  82
ATOM     80  C   ARG A   1      33.929  33.657   3.986  0.00  0.00    +0.238 C 
ATOM     81  O   ARG A   1      35.086  33.356   4.307  0.00  0.00    -0.274 OA
ATOM     82  N   MET A   2      33.248  33.035   3.021  0.00  0.00    -0.297 N 
ATOM     83  H   MET A   2      32.274  33.332   2.807  0.00  0.00    +0.150 HD
BRANCH  80  84
ATOM     84  CA  ARG A   1      33.194  34.763   4.729  0.00  0.00    +0.145 C 
BRANCH  84  85
ATOM     85  N   ARG A   1      32.912  34.193   6.031  0.00  0.00    -0.238 NA
ATOM     86  H   ARG A   1      33.556  34.386   6.825  0.00  0.00    +0.142 HD
ENDBRANCH  84  85
BRANCH  84  87
ATOM     87  CB  ARG A   1      34.073  36.016   4.878  0.00  0.00    +0.030 C 
BRANCH  87  88
ATOM     88  CG  ARG A   1      34.479  36.668   3.563  0.00  0.00    +0.045 C 
BRANCH  88  89
ATOM     89  CD  ARG A   1      35.109  38.039   3.794  0.00  0.00    +0.174 C 
BRANCH  89  90
ATOM     90  NE  ARG A   1      35.504  38.680   2.541  0.00  0.00    -0.265 N 
ATOM     91  CZ  ARG A   1      36.731  38.646   2.026  0.00  0.00    +0.342 C 
ATOM     92  NH2 ARG A   1      37.712  38.027   2.674  0.00  0.00    -0.292 N 
ATOM     93 HH21 ARG A   1      37.523  37.567   3.587  0.00  0.00    +0.255 HD
ATOM     94 HH22 ARG A   1      38.669  38.003   2.268  0.00  0.00    +0.255 HD
ATOM     95  NH1 ARG A   1      36.986  39.252   0.872  0.00  0.00    -0.292 N 
ATOM     96 HH11 ARG A   1      37.945  39.224   0.471  0.00  0.00    +0.255 HD
ATOM     97 HH12 ARG A   1      36.226  39.754   0.369  0.00  0.00    +0.255 HD
ATOM     98  HE  ARG A   1      34.774  39.200   2.014  0.00  0.00    +0.259 HD
ENDBRANCH  89  90
ENDBRANCH  88  89
ENDBRANCH  87  88
ENDBRANCH  84  87
ENDBRANCH  80  84
ENDBRANCH  79  82
BRANCH  79  99
ATOM     99  CB  MET A   2      33.501  30.599   2.916  0.00  0.00    +0.041 C 
BRANCH  99 100
ATOM    100  CG  MET A   2      32.028  30.421   3.335  0.00  0.00    +0.060 C 
BRANCH 100 101
ATOM    101  SD  MET A   2      30.923  30.080   1.966  0.00  0.00    -0.139 S 
ATOM    102  CE  MET A   2      31.526  28.426   1.515  0.00  0.00    +0.069 C 
ENDBRANCH 100 101
ENDBRANCH  99 100
ENDBRANCH  79  99
ENDBRANCH  75  79
ENDBRANCH  74  76
BRANCH  74 103
ATOM    103  CB  LEU A   3      30.792  33.136  -1.286  0.00  0.00    +0.029 C 
BRANCH 103 104
ATOM    104  CG  LEU A   3      29.747  32.121  -0.827  0.00  0.00    +0.002 C 
ATOM    105  CD2 LEU A   3      28.353  32.654  -1.147  0.00  0.00    +0.000 C 
ATOM    106  CD1 LEU A   3      29.987  30.776  -1.513  0.00  0.00    +0.000 C 
ENDBRANCH 103 104
ENDBRANCH  74 103
ENDBRANCH  70  74
ENDBRANCH  69  71
BRANCH  69 107
ATOM    107  CB  ASP A   4      34.423  37.082  -1.047  0.00  0.00    +0.143 C 
BRANCH 107 108
ATOM    108  CG  ASP A   4      34.834  38.300  -1.838  0.00  0.00    +0.367 C 
ATOM    109  OD2 ASP A   4      35.131  39.340  -1.214  0.00  0.00    -0.246 OA
ATOM    110  OD1 ASP A   4      34.846  38.217  -3.088  0.00  0.00    -0.246 OA
ENDBRANCH 107 108
ENDBRANCH  69 107
ENDBRANCH  65  69
ENDBRANCH  64  67
ENDBRANCH  60  64
ENDBRANCH  59  61
BRANCH  59 111
ATOM    111  CB  GLU A   6      39.610  29.863  -4.952  0.00  0.00    +0.041 C 
BRANCH 111 112
ATOM    112  CG  GLU A   6      39.581  28.850  -6.087  0.00  0.00    +0.116 C 
BRANCH 112 113
ATOM    113  CD  GLU A   6      40.822  27.956  -6.127  0.00  0.00    +0.365 C 
ATOM    114  OE2 GLU A   6      41.916  28.407  -5.707  0.00  0.00    -0.246 OA
ATOM    115  OE1 GLU A   6      40.700  26.799  -6.593  0.00  0.00    -0.246 OA
ENDBRANCH 112 113
ENDBRANCH 111 112
ENDBRANCH  59 111
ENDBRANCH   1  59
TORSDOF 49
REMARK  Name = ../refined-set-2016/4ryd/4ryd_pocket.pdb
REMARK  255 active torsions:
REMARK  status: ('A' for Active; 'I' for Inactive)
REMARK    1  A    between atoms: _1  and  _3
REMARK    2  A    between atoms: _3  and  _4
REMARK    3  A    between atoms: _3  and  _6
REMARK    4  A    between atoms: _6  and  _7
REMARK    5  A    between atoms: _10  and  _12
REMARK    6  A    between atoms: _12  and  _13
REMARK    7  A    between atoms: _12  and  _15
REMARK    8  A    between atoms: _15  and  _16
REMARK    9  A    between atoms: _19  and  _21
REMARK   10  A    between atoms: _21  and  _22
REMARK   11  A    between atoms: _24  and  _26
REMARK   12  A    between atoms: _26  and  _27
REMARK   13  A    between atoms: _26  and  _29
REMARK   14  A    between atoms: _29  and  _30
REMARK   15  A    between atoms: _35  and  _37
REMARK   16  A    between atoms: _37  and  _38
REMARK   17  A    between atoms: _37  and  _40
REMARK   18  A    between atoms: _40  and  _41
REMARK   19  A    between atoms: _41  and  _42
REMARK   20  A    between atoms: _42  and  _43
REMARK   21  A    between atoms: _52  and  _54
REMARK   22  A    between atoms: _54  and  _55
REMARK   23  A    between atoms: _54  and  _57
REMARK   24  A    between atoms: _57  and  _58
REMARK   25  A    between atoms: _61  and  _63
REMARK   26  A    between atoms: _63  and  _64
REMARK   27  A    between atoms: _63  and  _66
REMARK   28  A    between atoms: _66  and  _67
REMARK   29  A    between atoms: _72  and  _74
REMARK   30  A    between atoms: _74  and  _75
REMARK   31  A    between atoms: _74  and  _77
REMARK   32  A    between atoms: _77  and  _78
REMARK   33  A    between atoms: _81  and  _83
REMARK   34  A    between atoms: _83  and  _84
REMARK   35  A    between atoms: _83  and  _86
REMARK   36  A    between atoms: _86  and  _87
REMARK   37  A    between atoms: _92  and  _94
REMARK   38  A    between atoms: _94  and  _95
REMARK   39  A    between atoms: _94  and  _97
REMARK   40  A    between atoms: _97  and  _98
REMARK   41  A    between atoms: _98  and  _99
REMARK   42  A    between atoms: _99  and  _100
REMARK   43  A    between atoms: _109  and  _111
REMARK   44  A    between atoms: _111  and  _112
REMARK   45  A    between atoms: _111  and  _114
REMARK   46  A    between atoms: _114  and  _115
REMARK   47  A    between atoms: _120  and  _122
REMARK   48  A    between atoms: _122  and  _123
REMARK   49  A    between atoms: _125  and  _127
REMARK   50  A    between atoms: _127  and  _128
REMARK   51  A    between atoms: _127  and  _130
REMARK   52  A    between atoms: _130  and  _131
REMARK   53  A    between atoms: _134  and  _136
REMARK   54  A    between atoms: _136  and  _137
REMARK   55  A    between atoms: _136  and  _139
REMARK   56  A    between atoms: _141  and  _143
REMARK   57  A    between atoms: _143  and  _144
REMARK   58  A    between atoms: _143  and  _146
REMARK   59  A    between atoms: _146  and  _147
REMARK   60  A    between atoms: _147  and  _148
REMARK   61  A    between atoms: _148  and  _149
REMARK   62  A    between atoms: _158  and  _160
REMARK   63  A    between atoms: _160  and  _161
REMARK   64  A    between atoms: _160  and  _163
REMARK   65  A    between atoms: _163  and  _164
REMARK   66  A    between atoms: _164  and  _165
REMARK   67  A    between atoms: _167  and  _169
REMARK   68  A    between atoms: _169  and  _170
REMARK   69  A    between atoms: _169  and  _172
REMARK   70  A    between atoms: _172  and  _173
REMARK   71  A    between atoms: _176  and  _178
REMARK   72  A    between atoms: _178  and  _179
REMARK   73  A    between atoms: _178  and  _181
REMARK   74  A    between atoms: _181  and  _182
REMARK   75  A    between atoms: _185  and  _187
REMARK   76  A    between atoms: _187  and  _188
REMARK   77  A    between atoms: _190  and  _192
REMARK   78  A    between atoms: _192  and  _193
REMARK   79  A    between atoms: _192  and  _195
REMARK   80  A    between atoms: _195  and  _196
REMARK   81  A    between atoms: _196  and  _197
REMARK   82  A    between atoms: _200  and  _202
REMARK   83  A    between atoms: _202  and  _203
REMARK   84  A    between atoms: _202  and  _205
REMARK   85  A    between atoms: _208  and  _210
REMARK   86  A    between atoms: _210  and  _211
REMARK   87  A    between atoms: _210  and  _213
REMARK   88  A    between atoms: _213  and  _214
REMARK   89  A    between atoms: _217  and  _219
REMARK   90  A    between atoms: _219  and  _220
REMARK   91  A    between atoms: _219  and  _222
REMARK   92  A    between atoms: _222  and  _223
REMARK   93  A    between atoms: _226  and  _228
REMARK   94  A    between atoms: _228  and  _229
REMARK   95  A    between atoms: _232  and  _234
REMARK   96  A    between atoms: _234  and  _235
REMARK   97  A    between atoms: _234  and  _237
REMARK   98  A    between atoms: _240  and  _242
REMARK   99  A    between atoms: _242  and  _243
REMARK  100  A    between atoms: _242  and  _245
REMARK  101  A    between atoms: _245  and  _246
REMARK  102  A    between atoms: _246  and  _247
REMARK  103  A    between atoms: _250  and  _252
REMARK  104  A    between atoms: _252  and  _253
REMARK  105  A    between atoms: _256  and  _258
REMARK  106  A    between atoms: _258  and  _259
REMARK  107  A    between atoms: _262  and  _264
REMARK  108  A    between atoms: _264  and  _265
REMARK  109  A    between atoms: _264  and  _267
REMARK  110  A    between atoms: _267  and  _268
REMARK  111  A    between atoms: _270  and  _272
REMARK  112  A    between atoms: _272  and  _273
REMARK  113  A    between atoms: _272  and  _275
REMARK  114  A    between atoms: _275  and  _276
REMARK  115  A    between atoms: _286  and  _288
REMARK  116  A    between atoms: _288  and  _289
REMARK  117  A    between atoms: _292  and  _293
REMARK  118  A    between atoms: _298  and  _300
REMARK  119  A    between atoms: _300  and  _301
REMARK  120  A    between atoms: _300  and  _303
REMARK  121  A    between atoms: _303  and  _304
REMARK  122  A    between atoms: _304  and  _305
REMARK  123  A    between atoms: _308  and  _310
REMARK  124  A    between atoms: _310  and  _311
REMARK  125  A    between atoms: _310  and  _313
REMARK  126  A    between atoms: _313  and  _314
REMARK  127  A    between atoms: _317  and  _319
REMARK  128  A    between atoms: _319  and  _320
REMARK  129  A    between atoms: _319  and  _322
REMARK  130  A    between atoms: _322  and  _323
REMARK  131  A    between atoms: _326  and  _328
REMARK  132  A    between atoms: _328  and  _329
REMARK  133  A    between atoms: _328  and  _331
REMARK  134  A    between atoms: _331  and  _332
REMARK  135  A    between atoms: _335  and  _337
REMARK  136  A    between atoms: _337  and  _338
REMARK  137  A    between atoms: _337  and  _340
REMARK  138  A    between atoms: _343  and  _345
REMARK  139  A    between atoms: _345  and  _346
REMARK  140  A    between atoms: _345  and  _348
REMARK  141  A    between atoms: _348  and  _349
REMARK  142  A    between atoms: _352  and  _354
REMARK  143  A    between atoms: _354  and  _355
REMARK  144  A    between atoms: _358  and  _359
REMARK  145  A    between atoms: _364  and  _366
REMARK  146  A    between atoms: _366  and  _367
REMARK  147  A    between atoms: _370  and  _372
REMARK  148  A    between atoms: _372  and  _373
REMARK  149  A    between atoms: _372  and  _375
REMARK  150  A    between atoms: _375  and  _376
REMARK  151  A    between atoms: _376  and  _377
REMARK  152  A    between atoms: _377  and  _378
REMARK  153  A    between atoms: _387  and  _389
REMARK  154  A    between atoms: _389  and  _390
REMARK  155  A    between atoms: _389  and  _392
REMARK  156  A    between atoms: _392  and  _393
REMARK  157  A    between atoms: _396  and  _398
REMARK  158  A    between atoms: _398  and  _399
REMARK  159  A    between atoms: _402  and  _404
REMARK  160  A    between atoms: _404  and  _405
REMARK  161  A    between atoms: _404  and  _407
REMARK  162  A    between atoms: _407  and  _408
REMARK  163  A    between atoms: _408  and  _409
REMARK  164  A    between atoms: _412  and  _414
REMARK  165  A    between atoms: _414  and  _415
REMARK  166  A    between atoms: _414  and  _417
REMARK  167  A    between atoms: _417  and  _418
REMARK  168  A    between atoms: _428  and  _430
REMARK  169  A    between atoms: _430  and  _431
REMARK  170  A    between atoms: _434  and  _436
REMARK  171  A    between atoms: _436  and  _437
REMARK  172  A    between atoms: _436  and  _439
REMARK  173  A    between atoms: _439  and  _440
REMARK  174  A    between atoms: _442  and  _444
REMARK  175  A    between atoms: _444  and  _445
REMARK  176  A    between atoms: _447  and  _449
REMARK  177  A    between atoms: _449  and  _450
REMARK  178  A    between atoms: _449  and  _452
REMARK  179  A    between atoms: _452  and  _453
REMARK  180  A    between atoms: _458  and  _460
REMARK  181  A    between atoms: _460  and  _461
REMARK  182  A    between atoms: _463  and  _465
REMARK  183  A    between atoms: _465  and  _466
REMARK  184  A    between atoms: _465  and  _468
REMARK  185  A    between atoms: _468  and  _469
REMARK  186  A    between atoms: _469  and  _471
REMARK  187  A    between atoms: _471  and  CA_629
REMARK  188  A    between atoms: _472  and  _474
REMARK  189  A    between atoms: _474  and  _475
REMARK  190  A    between atoms: _474  and  _477
REMARK  191  A    between atoms: _477  and  _478
REMARK  192  A    between atoms: _480  and  _482
REMARK  193  A    between atoms: _482  and  _483
REMARK  194  A    between atoms: _482  and  _485
REMARK  195  A    between atoms: _487  and  _489
REMARK  196  A    between atoms: _489  and  _490
REMARK  197  A    between atoms: _489  and  _492
REMARK  198  A    between atoms: _494  and  _496
REMARK  199  A    between atoms: _496  and  _497
REMARK  200  A    between atoms: _496  and  _499
REMARK  201  A    between atoms: _499  and  _500
REMARK  202  A    between atoms: _503  and  _505
REMARK  203  A    between atoms: _505  and  _506
REMARK  204  A    between atoms: _508  and  _510
REMARK  205  A    between atoms: _510  and  _511
REMARK  206  A    between atoms: _510  and  _513
REMARK  207  A    between atoms: _513  and  _514
REMARK  208  A    between atoms: _519  and  _520
REMARK  209  A    between atoms: _522  and  _524
REMARK  210  A    between atoms: _524  and  _525
REMARK  211  A    between atoms: _524  and  _527
REMARK  212  A    between atoms: _527  and  _528
REMARK  213  A    between atoms: _531  and  _533
REMARK  214  A    between atoms: _533  and  _534
REMARK  215  A    between atoms: _533  and  _536
REMARK  216  A    between atoms: _536  and  _537
REMARK  217  A    between atoms: _542  and  _544
REMARK  218  A    between atoms: _544  and  _545
REMARK  219  A    between atoms: _544  and  _547
REMARK  220  A    between atoms: _547  and  _548
REMARK  221  A    between atoms: _551  and  _553
REMARK  222  A    between atoms: _553  and  _554
REMARK  223  A    between atoms: _553  and  _556
REMARK  224  A    between atoms: _556  and  _557
REMARK  225  A    between atoms: _559  and  _561
REMARK  226  A    between atoms: _561  and  _562
REMARK  227  A    between atoms: _561  and  _564
REMARK  228  A    between atoms: _564  and  _565
REMARK  229  A    between atoms: _568  and  _570
REMARK  230  A    between atoms: _570  and  _571
REMARK  231  A    between atoms: _570  and  _573
REMARK  232  A    between atoms: _573  and  _574
REMARK  233  A    between atoms: _574  and  _575
REMARK  234  A    between atoms: _578  and  _580
REMARK  235  A    between atoms: _580  and  _581
REMARK  236  A    between atoms: _580  and  _583
REMARK  237  A    between atoms: _583  and  _584
REMARK  238  A    between atoms: _587  and  _589
REMARK  239  A    between atoms: _589  and  _590
REMARK  240  A    between atoms: _592  and  _594
REMARK  241  A    between atoms: _594  and  _595
REMARK  242  A    between atoms: _594  and  _597
REMARK  243  A    between atoms: _597  and  _598
REMARK  244  A    between atoms: _601  and  _603
REMARK  245  A    between atoms: _603  and  _604
REMARK  246  A    between atoms: _603  and  _606
REMARK  247  A    between atoms: _606  and  _607
REMARK  248  A    between atoms: _609  and  _611
REMARK  249  A    between atoms: _611  and  _612
REMARK  250  A    between atoms: _615  and  _617
REMARK  251  A    between atoms: _617  and  _618
REMARK  252  A    between atoms: _617  and  _620
REMARK  253  A    between atoms: _620  and  _621
REMARK  254  A    between atoms: _623  and  _625
REMARK  255  A    between atoms: _625  and  _626
REMARK                            x       y       z     vdW  Elec       q    Type
REMARK                         _______ _______ _______ _____ _____    ______ ____
ROOT
ATOM      1  C   GLY A   4      26.151  25.842  -5.715  0.00  0.00    +0.246 C 
ATOM      2  O   GLY A   4      26.646  26.834  -6.252  0.00  0.00    -0.273 OA
ATOM      3  N   PRO A   5      26.095  24.660  -6.336  0.00  0.00    -0.272 N 
ATOM      4  CD  PRO A   5      25.617  23.390  -5.768  0.00  0.00    +0.094 C 
ATOM      5  CG  PRO A   5      26.368  22.378  -6.586  0.00  0.00    +0.024 C 
ATOM      6  CB  PRO A   5      26.365  22.976  -7.958  0.00  0.00    +0.031 C 
ATOM      7  CA  PRO A   5      26.607  24.468  -7.696  0.00  0.00    +0.152 C 
ENDROOT
BRANCH   7   8
ATOM      8  C   PRO A   5      25.828  25.344  -8.672  0.00  0.00    +0.241 C 
ATOM      9  O   PRO A   5      24.703  25.742  -8.394  0.00  0.00    -0.273 OA
ATOM     10  N   GLU A   6      26.427  25.628  -9.822  0.00  0.00    -0.297 N 
ATOM     11  H   GLU A   6      27.378  25.247 -10.003  0.00  0.00    +0.150 HD
BRANCH  10  12
ATOM     12  CA  GLU A   6      25.797  26.453 -10.833  0.00  0.00    +0.149 C 
BRANCH  12  13
ATOM     13  C   GLU A   6      24.434  25.908 -11.285  0.00  0.00    +0.241 C 
ATOM     14  O   GLU A   6      24.249  24.693 -11.427  0.00  0.00    -0.273 OA
ATOM     15  N   ASP A   7      23.481  26.810 -11.505  0.00  0.00    -0.297 N 
ATOM     16  H   ASP A   7      23.700  27.819 -11.379  0.00  0.00    +0.150 HD
BRANCH  15  17
ATOM     17  CA  ASP A   7      22.137  26.421 -11.918  0.00  0.00    +0.160 C 
BRANCH  17  18
ATOM     18  C   ASP A   7      21.928  26.542 -13.433  0.00  0.00    +0.241 C 
ATOM     19  O   ASP A   7      20.927  27.108 -13.884  0.00  0.00    -0.273 OA
ATOM     20  N   ASP A   8      22.854  26.014 -14.222  0.00  0.00    -0.298 N 
ATOM     21  H   ASP A   8      23.679  25.531 -13.814  0.00  0.00    +0.150 HD
BRANCH  20  22
ATOM     22  CA  ASP A   8      22.702  26.119 -15.670  0.00  0.00    +0.148 C 
BRANCH  22  23
ATOM     23  C   ASP A   8      21.793  25.042 -16.222  0.00  0.00    +0.227 C 
ATOM     24  O   ASP A   8      21.483  25.045 -17.406  0.00  0.00    -0.286 OA
ENDBRANCH  22  23
BRANCH  22  25
ATOM     25  CB  ASP A   8      24.057  26.056 -16.370  0.00  0.00    +0.142 C 
BRANCH  25  26
ATOM     26  CG  ASP A   8      24.877  24.821 -15.975  0.00  0.00    +0.367 C 
ATOM     27  OD2 ASP A   8      24.345  23.886 -15.326  0.00  0.00    -0.246 OA
ATOM     28  OD1 ASP A   8      26.070  24.785 -16.334  0.00  0.00    -0.246 OA
ENDBRANCH  25  26
ENDBRANCH  22  25
ENDBRANCH  20  22
ENDBRANCH  17  18
BRANCH  17  29
ATOM     29  CB  ASP A   7      21.094  27.294 -11.207  0.00  0.00    +0.143 C 
BRANCH  29  30
ATOM     30  CG  ASP A   7      21.094  27.106  -9.705  0.00  0.00    +0.367 C 
ATOM     31  OD2 ASP A   7      20.956  28.116  -8.988  0.00  0.00    -0.246 OA
ATOM     32  OD1 ASP A   7      21.205  25.949  -9.245  0.00  0.00    -0.246 OA
ENDBRANCH  29  30
ENDBRANCH  17  29
ENDBRANCH  15  17
ENDBRANCH  12  13
BRANCH  12  33
ATOM     33  CB  GLU A   6      26.733  26.595 -12.024  0.00  0.00    +0.041 C 
BRANCH  33  34
ATOM     34  CG  GLU A   6      26.249  27.650 -13.001  0.00  0.00    +0.116 C 
BRANCH  34  35
ATOM     35  CD  GLU A   6      27.289  28.031 -14.030  0.00  0.00    +0.365 C 
ATOM     36  OE2 GLU A   6      28.414  27.484 -13.968  0.00  0.00    -0.246 OA
ATOM     37  OE1 GLU A   6      26.973  28.881 -14.896  0.00  0.00    -0.246 OA
ENDBRANCH  34  35
ENDBRANCH  33  34
ENDBRANCH  12  33
ENDBRANCH  10  12
ENDBRANCH   7   8
BRANCH   1  38
ATOM     38  CA  GLY A   4      25.589  25.931  -4.314  0.00  0.00    +0.176 C 
BRANCH  38  41
ATOM     39  C   TRP A   3      24.829  27.590  -2.748  0.00  0.00    +0.241 C 
ATOM     40  O   TRP A   3      24.376  26.730  -1.999  0.00  0.00    -0.273 OA
ATOM     41  N   GLY A   4      25.423  27.311  -3.902  0.00  0.00    -0.295 N 
ATOM     42  H   GLY A   4      25.769  28.081  -4.509  0.00  0.00    +0.150 HD
BRANCH  39  43
ATOM     43  CA  TRP A   3      24.716  29.049  -2.383  0.00  0.00    +0.153 C 
BRANCH  43  45
ATOM     44  C   SER A   2      23.222  30.305  -0.936  0.00  0.00    +0.243 C 
ATOM     45  N   TRP A   3      23.808  29.159  -1.254  0.00  0.00    -0.297 N 
ATOM     46  H   TRP A   3      23.612  28.315  -0.679  0.00  0.00    +0.150 HD
ATOM     47  O   SER A   2      23.403  31.345  -1.573  0.00  0.00    -0.273 OA
BRANCH  44  48
ATOM     48  CA  SER A   2      22.300  30.264   0.288  0.00  0.00    +0.178 C 
BRANCH  48  51
ATOM     49  C   ALA A   1      22.926  28.601   1.947  0.00  0.00    +0.238 C 
ATOM     50  O   ALA A   1      22.163  27.761   1.478  0.00  0.00    -0.274 OA
ATOM     51  N   SER A   2      23.057  29.827   1.450  0.00  0.00    -0.295 N 
ATOM     52  H   SER A   2      23.717  30.490   1.904  0.00  0.00    +0.150 HD
BRANCH  49  53
ATOM     53  CA  ALA A   1      23.795  28.274   3.151  0.00  0.00    +0.145 C 
ATOM     54  CB  ALA A   1      24.631  27.016   2.873  0.00  0.00    +0.028 C 
BRANCH  53  55
ATOM     55  N   ALA A   1      23.030  28.098   4.376  0.00  0.00    -0.238 NA
ATOM     56  H   ALA A   1      22.209  27.460   4.389  0.00  0.00    +0.142 HD
ENDBRANCH  53  55
ENDBRANCH  49  53
ENDBRANCH  48  51
BRANCH  48  57
ATOM     57  CB  SER A   2      21.694  31.647   0.549  0.00  0.00    +0.166 C 
BRANCH  57  58
ATOM     58  OG  SER A   2      20.733  31.575   1.593  0.00  0.00    -0.380 OA
ATOM     59  H   SER A   2      21.170  31.252   2.420  0.00  0.00    +0.211 HD
ENDBRANCH  57  58
ENDBRANCH  48  57
ENDBRANCH  44  48
ENDBRANCH  43  45
BRANCH  43  60
ATOM     60  CB  TRP A   3      26.114  29.593  -2.033  0.00  0.00    +0.057 C 
BRANCH  60  61
ATOM     61  CG  TRP A   3      26.705  29.020  -0.769  0.00  0.00    -0.002 A 
ATOM     62  CD1 TRP A   3      26.624  29.556   0.479  0.00  0.00    +0.068 A 
ATOM     63  NE1 TRP A   3      27.284  28.754   1.388  0.00  0.00    -0.352 N 
ATOM     64  HE1 TRP A   3      27.374  28.943   2.407  0.00  0.00    +0.166 HD
ATOM     65  CE2 TRP A   3      27.802  27.669   0.732  0.00  0.00    +0.056 A 
ATOM     66  CZ2 TRP A   3      28.545  26.584   1.223  0.00  0.00    +0.017 A 
ATOM     67  CH2 TRP A   3      28.949  25.628   0.321  0.00  0.00    +0.001 A 
ATOM     68  CZ3 TRP A   3      28.629  25.731  -1.043  0.00  0.00    +0.000 A 
ATOM     69  CE3 TRP A   3      27.881  26.814  -1.532  0.00  0.00    +0.001 A 
ATOM     70  CD2 TRP A   3      27.460  27.801  -0.634  0.00  0.00    +0.013 A 
ENDBRANCH  60  61
ENDBRANCH  43  60
ENDBRANCH  39  43
ENDBRANCH  38  41
ENDBRANCH   1  38
TORSDOF 26
REMARK  Name = ../refined-set-2016/4ryd/4ryd_pocket.pdb
REMARK  255 active torsions:
REMARK  status: ('A' for Active; 'I' for Inactive)
REMARK    1  A    between atoms: _1  and  _3
REMARK    2  A    between atoms: _3  and  _4
REMARK    3  A    between atoms: _3  and  _6
REMARK    4  A    between atoms: _6  and  _7
REMARK    5  A    between atoms: _10  and  _12
REMARK    6  A    between atoms: _12  and  _13
REMARK    7  A    between atoms: _12  and  _15
REMARK    8  A    between atoms: _15  and  _16
REMARK    9  A    between atoms: _19  and  _21
REMARK   10  A    between atoms: _21  and  _22
REMARK   11  A    between atoms: _24  and  _26
REMARK   12  A    between atoms: _26  and  _27
REMARK   13  A    between atoms: _26  and  _29
REMARK   14  A    between atoms: _29  and  _30
REMARK   15  A    between atoms: _35  and  _37
REMARK   16  A    between atoms: _37  and  _38
REMARK   17  A    between atoms: _37  and  _40
REMARK   18  A    between atoms: _40  and  _41
REMARK   19  A    between atoms: _41  and  _42
REMARK   20  A    between atoms: _42  and  _43
REMARK   21  A    between atoms: _52  and  _54
REMARK   22  A    between atoms: _54  and  _55
REMARK   23  A    between atoms: _54  and  _57
REMARK   24  A    between atoms: _57  and  _58
REMARK   25  A    between atoms: _61  and  _63
REMARK   26  A    between atoms: _63  and  _64
REMARK   27  A    between atoms: _63  and  _66
REMARK   28  A    between atoms: _66  and  _67
REMARK   29  A    between atoms: _72  and  _74
REMARK   30  A    between atoms: _74  and  _75
REMARK   31  A    between atoms: _74  and  _77
REMARK   32  A    between atoms: _77  and  _78
REMARK   33  A    between atoms: _81  and  _83
REMARK   34  A    between atoms: _83  and  _84
REMARK   35  A    between atoms: _83  and  _86
REMARK   36  A    between atoms: _86  and  _87
REMARK   37  A    between atoms: _92  and  _94
REMARK   38  A    between atoms: _94  and  _95
REMARK   39  A    between atoms: _94  and  _97
REMARK   40  A    between atoms: _97  and  _98
REMARK   41  A    between atoms: _98  and  _99
REMARK   42  A    between atoms: _99  and  _100
REMARK   43  A    between atoms: _109  and  _111
REMARK   44  A    between atoms: _111  and  _112
REMARK   45  A    between atoms: _111  and  _114
REMARK   46  A    between atoms: _114  and  _115
REMARK   47  A    between atoms: _120  and  _122
REMARK   48  A    between atoms: _122  and  _123
REMARK   49  A    between atoms: _125  and  _127
REMARK   50  A    between atoms: _127  and  _128
REMARK   51  A    between atoms: _127  and  _130
REMARK   52  A    between atoms: _130  and  _131
REMARK   53  A    between atoms: _134  and  _136
REMARK   54  A    between atoms: _136  and  _137
REMARK   55  A    between atoms: _136  and  _139
REMARK   56  A    between atoms: _141  and  _143
REMARK   57  A    between atoms: _143  and  _144
REMARK   58  A    between atoms: _143  and  _146
REMARK   59  A    between atoms: _146  and  _147
REMARK   60  A    between atoms: _147  and  _148
REMARK   61  A    between atoms: _148  and  _149
REMARK   62  A    between atoms: _158  and  _160
REMARK   63  A    between atoms: _160  and  _161
REMARK   64  A    between atoms: _160  and  _163
REMARK   65  A    between atoms: _163  and  _164
REMARK   66  A    between atoms: _164  and  _165
REMARK   67  A    between atoms: _167  and  _169
REMARK   68  A    between atoms: _169  and  _170
REMARK   69  A    between atoms: _169  and  _172
REMARK   70  A    between atoms: _172  and  _173
REMARK   71  A    between atoms: _176  and  _178
REMARK   72  A    between atoms: _178  and  _179
REMARK   73  A    between atoms: _178  and  _181
REMARK   74  A    between atoms: _181  and  _182
REMARK   75  A    between atoms: _185  and  _187
REMARK   76  A    between atoms: _187  and  _188
REMARK   77  A    between atoms: _190  and  _192
REMARK   78  A    between atoms: _192  and  _193
REMARK   79  A    between atoms: _192  and  _195
REMARK   80  A    between atoms: _195  and  _196
REMARK   81  A    between atoms: _196  and  _197
REMARK   82  A    between atoms: _200  and  _202
REMARK   83  A    between atoms: _202  and  _203
REMARK   84  A    between atoms: _202  and  _205
REMARK   85  A    between atoms: _208  and  _210
REMARK   86  A    between atoms: _210  and  _211
REMARK   87  A    between atoms: _210  and  _213
REMARK   88  A    between atoms: _213  and  _214
REMARK   89  A    between atoms: _217  and  _219
REMARK   90  A    between atoms: _219  and  _220
REMARK   91  A    between atoms: _219  and  _222
REMARK   92  A    between atoms: _222  and  _223
REMARK   93  A    between atoms: _226  and  _228
REMARK   94  A    between atoms: _228  and  _229
REMARK   95  A    between atoms: _232  and  _234
REMARK   96  A    between atoms: _234  and  _235
REMARK   97  A    between atoms: _234  and  _237
REMARK   98  A    between atoms: _240  and  _242
REMARK   99  A    between atoms: _242  and  _243
REMARK  100  A    between atoms: _242  and  _245
REMARK  101  A    between atoms: _245  and  _246
REMARK  102  A    between atoms: _246  and  _247
REMARK  103  A    between atoms: _250  and  _252
REMARK  104  A    between atoms: _252  and  _253
REMARK  105  A    between atoms: _256  and  _258
REMARK  106  A    between atoms: _258  and  _259
REMARK  107  A    between atoms: _262  and  _264
REMARK  108  A    between atoms: _264  and  _265
REMARK  109  A    between atoms: _264  and  _267
REMARK  110  A    between atoms: _267  and  _268
REMARK  111  A    between atoms: _270  and  _272
REMARK  112  A    between atoms: _272  and  _273
REMARK  113  A    between atoms: _272  and  _275
REMARK  114  A    between atoms: _275  and  _276
REMARK  115  A    between atoms: _286  and  _288
REMARK  116  A    between atoms: _288  and  _289
REMARK  117  A    between atoms: _292  and  _293
REMARK  118  A    between atoms: _298  and  _300
REMARK  119  A    between atoms: _300  and  _301
REMARK  120  A    between atoms: _300  and  _303
REMARK  121  A    between atoms: _303  and  _304
REMARK  122  A    between atoms: _304  and  _305
REMARK  123  A    between atoms: _308  and  _310
REMARK  124  A    between atoms: _310  and  _311
REMARK  125  A    between atoms: _310  and  _313
REMARK  126  A    between atoms: _313  and  _314
REMARK  127  A    between atoms: _317  and  _319
REMARK  128  A    between atoms: _319  and  _320
REMARK  129  A    between atoms: _319  and  _322
REMARK  130  A    between atoms: _322  and  _323
REMARK  131  A    between atoms: _326  and  _328
REMARK  132  A    between atoms: _328  and  _329
REMARK  133  A    between atoms: _328  and  _331
REMARK  134  A    between atoms: _331  and  _332
REMARK  135  A    between atoms: _335  and  _337
REMARK  136  A    between atoms: _337  and  _338
REMARK  137  A    between atoms: _337  and  _340
REMARK  138  A    between atoms: _343  and  _345
REMARK  139  A    between atoms: _345  and  _346
REMARK  140  A    between atoms: _345  and  _348
REMARK  141  A    between atoms: _348  and  _349
REMARK  142  A    between atoms: _352  and  _354
REMARK  143  A    between atoms: _354  and  _355
REMARK  144  A    between atoms: _358  and  _359
REMARK  145  A    between atoms: _364  and  _366
REMARK  146  A    between atoms: _366  and  _367
REMARK  147  A    between atoms: _370  and  _372
REMARK  148  A    between atoms: _372  and  _373
REMARK  149  A    between atoms: _372  and  _375
REMARK  150  A    between atoms: _375  and  _376
REMARK  151  A    between atoms: _376  and  _377
REMARK  152  A    between atoms: _377  and  _378
REMARK  153  A    between atoms: _387  and  _389
REMARK  154  A    between atoms: _389  and  _390
REMARK  155  A    between atoms: _389  and  _392
REMARK  156  A    between atoms: _392  and  _393
REMARK  157  A    between atoms: _396  and  _398
REMARK  158  A    between atoms: _398  and  _399
REMARK  159  A    between atoms: _402  and  _404
REMARK  160  A    between atoms: _404  and  _405
REMARK  161  A    between atoms: _404  and  _407
REMARK  162  A    between atoms: _407  and  _408
REMARK  163  A    between atoms: _408  and  _409
REMARK  164  A    between atoms: _412  and  _414
REMARK  165  A    between atoms: _414  and  _415
REMARK  166  A    between atoms: _414  and  _417
REMARK  167  A    between atoms: _417  and  _418
REMARK  168  A    between atoms: _428  and  _430
REMARK  169  A    between atoms: _430  and  _431
REMARK  170  A    between atoms: _434  and  _436
REMARK  171  A    between atoms: _436  and  _437
REMARK  172  A    between atoms: _436  and  _439
REMARK  173  A    between atoms: _439  and  _440
REMARK  174  A    between atoms: _442  and  _444
REMARK  175  A    between atoms: _444  and  _445
REMARK  176  A    between atoms: _447  and  _449
REMARK  177  A    between atoms: _449  and  _450
REMARK  178  A    between atoms: _449  and  _452
REMARK  179  A    between atoms: _452  and  _453
REMARK  180  A    between atoms: _458  and  _460
REMARK  181  A    between atoms: _460  and  _461
REMARK  182  A    between atoms: _463  and  _465
REMARK  183  A    between atoms: _465  and  _466
REMARK  184  A    between atoms: _465  and  _468
REMARK  185  A    between atoms: _468  and  _469
REMARK  186  A    between atoms: _469  and  _471
REMARK  187  A    between atoms: _471  and  CA_629
REMARK  188  A    between atoms: _472  and  _474
REMARK  189  A    between atoms: _474  and  _475
REMARK  190  A    between atoms: _474  and  _477
REMARK  191  A    between atoms: _477  and  _478
REMARK  192  A    between atoms: _480  and  _482
REMARK  193  A    between atoms: _482  and  _483
REMARK  194  A    between atoms: _482  and  _485
REMARK  195  A    between atoms: _487  and  _489
REMARK  196  A    between atoms: _489  and  _490
REMARK  197  A    between atoms: _489  and  _492
REMARK  198  A    between atoms: _494  and  _496
REMARK  199  A    between atoms: _496  and  _497
REMARK  200  A    between atoms: _496  and  _499
REMARK  201  A    between atoms: _499  and  _500
REMARK  202  A    between atoms: _503  and  _505
REMARK  203  A    between atoms: _505  and  _506
REMARK  204  A    between atoms: _508  and  _510
REMARK  205  A    between atoms: _510  and  _511
REMARK  206  A    between atoms: _510  and  _513
REMARK  207  A    between atoms: _513  and  _514
REMARK  208  A    between atoms: _519  and  _520
REMARK  209  A    between atoms: _522  and  _524
REMARK  210  A    between atoms: _524  and  _525
REMARK  211  A    between atoms: _524  and  _527
REMARK  212  A    between atoms: _527  and  _528
REMARK  213  A    between atoms: _531  and  _533
REMARK  214  A    between atoms: _533  and  _534
REMARK  215  A    between atoms: _533  and  _536
REMARK  216  A    between atoms: _536  and  _537
REMARK  217  A    between atoms: _542  and  _544
REMARK  218  A    between atoms: _544  and  _545
REMARK  219  A    between atoms: _544  and  _547
REMARK  220  A    between atoms: _547  and  _548
REMARK  221  A    between atoms: _551  and  _553
REMARK  222  A    between atoms: _553  and  _554
REMARK  223  A    between atoms: _553  and  _556
REMARK  224  A    between atoms: _556  and  _557
REMARK  225  A    between atoms: _559  and  _561
REMARK  226  A    between atoms: _561  and  _562
REMARK  227  A    between atoms: _561  and  _564
REMARK  228  A    between atoms: _564  and  _565
REMARK  229  A    between atoms: _568  and  _570
REMARK  230  A    between atoms: _570  and  _571
REMARK  231  A    between atoms: _570  and  _573
REMARK  232  A    between atoms: _573  and  _574
REMARK  233  A    between atoms: _574  and  _575
REMARK  234  A    between atoms: _578  and  _580
REMARK  235  A    between atoms: _580  and  _581
REMARK  236  A    between atoms: _580  and  _583
REMARK  237  A    between atoms: _583  and  _584
REMARK  238  A    between atoms: _587  and  _589
REMARK  239  A    between atoms: _589  and  _590
REMARK  240  A    between atoms: _592  and  _594
REMARK  241  A    between atoms: _594  and  _595
REMARK  242  A    between atoms: _594  and  _597
REMARK  243  A    between atoms: _597  and  _598
REMARK  244  A    between atoms: _601  and  _603
REMARK  245  A    between atoms: _603  and  _604
REMARK  246  A    between atoms: _603  and  _606
REMARK  247  A    between atoms: _606  and  _607
REMARK  248  A    between atoms: _609  and  _611
REMARK  249  A    between atoms: _611  and  _612
REMARK  250  A    between atoms: _615  and  _617
REMARK  251  A    between atoms: _617  and  _618
REMARK  252  A    between atoms: _617  and  _620
REMARK  253  A    between atoms: _620  and  _621
REMARK  254  A    between atoms: _623  and  _625
REMARK  255  A    between atoms: _625  and  _626
REMARK                            x       y       z     vdW  Elec       q    Type
REMARK                         _______ _______ _______ _____ _____    ______ ____
ROOT
ATOM      1  C   ALA A   6      34.095  16.262  -1.090  0.00  0.00    +0.241 C 
ATOM      2  O   ALA A   6      33.363  16.515  -0.129  0.00  0.00    -0.273 OA
ATOM      3  N   ARG A   7      35.125  15.428  -0.992  0.00  0.00    -0.297 N 
ATOM      4  H   ARG A   7      35.773  15.322  -1.798  0.00  0.00    +0.150 HD
ENDROOT
BRANCH   1   5
ATOM      5  CA  ALA A   6      33.855  16.940  -2.451  0.00  0.00    +0.149 C 
ATOM      6  CB  ALA A   6      35.071  17.768  -2.878  0.00  0.00    +0.031 C 
BRANCH   5   8
ATOM      7  C   PRO A   5      31.453  17.328  -2.298  0.00  0.00    +0.241 C 
ATOM      8  N   ALA A   6      32.694  17.804  -2.257  0.00  0.00    -0.297 N 
ATOM      9  H   ALA A   6      32.842  18.819  -2.082  0.00  0.00    +0.150 HD
ATOM     10  O   PRO A   5      31.190  16.153  -2.554  0.00  0.00    -0.273 OA
BRANCH   7  13
ATOM     11  C   GLY A   4      29.192  18.341  -4.175  0.00  0.00    +0.246 C 
ATOM     12  N   PRO A   5      29.143  18.162  -2.843  0.00  0.00    -0.272 N 
ATOM     13  CA  PRO A   5      30.337  18.330  -2.012  0.00  0.00    +0.152 C 
ATOM     14  CB  PRO A   5      29.788  18.177  -0.593  0.00  0.00    +0.031 C 
ATOM     15  CG  PRO A   5      28.686  17.194  -0.773  0.00  0.00    +0.024 C 
ATOM     16  CD  PRO A   5      27.999  17.725  -2.023  0.00  0.00    +0.094 C 
ATOM     17  O   GLY A   4      30.244  18.628  -4.753  0.00  0.00    -0.273 OA
BRANCH  11  18
ATOM     18  CA  GLY A   4      27.917  18.158  -4.974  0.00  0.00    +0.176 C 
BRANCH  18  20
ATOM     19  C   ASP A   3      27.263  18.413  -7.286  0.00  0.00    +0.241 C 
ATOM     20  N   GLY A   4      28.215  18.224  -6.385  0.00  0.00    -0.295 N 
ATOM     21  H   GLY A   4      29.200  18.121  -6.701  0.00  0.00    +0.150 HD
ATOM     22  O   ASP A   3      26.070  18.542  -6.998  0.00  0.00    -0.273 OA
BRANCH  19  23
ATOM     23  CA  ASP A   3      27.731  18.444  -8.737  0.00  0.00    +0.160 C 
BRANCH  23  25
ATOM     24  C   VAL A   2      26.804  17.619 -10.807  0.00  0.00    +0.241 C 
ATOM     25  N   ASP A   3      26.602  18.140  -9.602  0.00  0.00    -0.297 N 
ATOM     26  H   ASP A   3      25.633  18.331  -9.276  0.00  0.00    +0.150 HD
ATOM     27  O   VAL A   2      27.927  17.326 -11.234  0.00  0.00    -0.273 OA
BRANCH  24  28
ATOM     28  CA  VAL A   2      25.572  17.421 -11.666  0.00  0.00    +0.148 C 
BRANCH  28  31
ATOM     29  C   THR A   1      25.021  19.299 -13.130  0.00  0.00    +0.241 C 
ATOM     30  O   THR A   1      23.884  19.401 -12.687  0.00  0.00    -0.274 OA
ATOM     31  N   VAL A   2      25.870  18.363 -12.735  0.00  0.00    -0.297 N 
ATOM     32  H   VAL A   2      26.793  18.298 -13.211  0.00  0.00    +0.150 HD
BRANCH  29  33
ATOM     33  CA  THR A   1      25.542  20.230 -14.217  0.00  0.00    +0.172 C 
BRANCH  33  34
ATOM     34  CB  THR A   1      26.363  21.362 -13.539  0.00  0.00    +0.135 C 
ATOM     35  CG2 THR A   1      26.440  22.573 -14.415  0.00  0.00    +0.034 C 
BRANCH  34  36
ATOM     36  OG1 THR A   1      25.750  21.728 -12.306  0.00  0.00    -0.383 OA
ATOM     37  HG1 THR A   1      24.829  22.048 -12.479  0.00  0.00    +0.210 HD
ENDBRANCH  34  36
ENDBRANCH  33  34
BRANCH  33  38
ATOM     38  N   THR A   1      24.479  20.748 -15.052  0.00  0.00    -0.236 NA
ATOM     39  H   THR A   1      23.830  21.477 -14.693  0.00  0.00    +0.142 HD
ENDBRANCH  33  38
ENDBRANCH  29  33
ENDBRANCH  28  31
BRANCH  28  40
ATOM     40  CB  VAL A   2      25.504  15.967 -12.166  0.00  0.00    +0.027 C 
ATOM     41  CG2 VAL A   2      25.323  15.032 -10.987  0.00  0.00    +0.002 C 
ATOM     42  CG1 VAL A   2      24.349  15.813 -13.155  0.00  0.00    +0.002 C 
ENDBRANCH  28  40
ENDBRANCH  24  28
ENDBRANCH  23  25
BRANCH  23  43
ATOM     43  CB  ASP A   3      28.273  19.838  -9.123  0.00  0.00    +0.143 C 
BRANCH  43  44
ATOM     44  CG  ASP A   3      29.662  20.142  -8.550  0.00  0.00    +0.367 C 
ATOM     45  OD2 ASP A   3      30.320  19.238  -7.990  0.00  0.00    -0.246 OA
ATOM     46  OD1 ASP A   3      30.105  21.309  -8.682  0.00  0.00    -0.246 OA
ENDBRANCH  43  44
ENDBRANCH  23  43
ENDBRANCH  19  23
ENDBRANCH  18  20
ENDBRANCH  11  18
ENDBRANCH   7  13
ENDBRANCH   5   8
ENDBRANCH   1   5
BRANCH   3  47
ATOM     47  CA  ARG A   7      35.365  14.658   0.223  0.00  0.00    +0.149 C 
BRANCH  47  48
ATOM     48  C   ARG A   7      35.433  15.367   1.569  0.00  0.00    +0.241 C 
ATOM     49  O   ARG A   7      34.791  14.926   2.522  0.00  0.00    -0.273 OA
ATOM     50  N   LEU A   8      36.196  16.453   1.662  0.00  0.00    -0.297 N 
ATOM     51  H   LEU A   8      36.716  16.796   0.829  0.00  0.00    +0.150 HD
BRANCH  50  52
ATOM     52  CA  LEU A   8      36.304  17.165   2.934  0.00  0.00    +0.149 C 
BRANCH  52  53
ATOM     53  C   LEU A   8      34.968  17.750   3.362  0.00  0.00    +0.241 C 
ATOM     54  O   LEU A   8      34.614  17.684   4.538  0.00  0.00    -0.273 OA
ATOM     55  N   ALA A   9      34.224  18.323   2.416  0.00  0.00    -0.297 N 
ATOM     56  H   ALA A   9      34.578  18.370   1.439  0.00  0.00    +0.150 HD
BRANCH  55  57
ATOM     57  CA  ALA A   9      32.910  18.888   2.742  0.00  0.00    +0.149 C 
ATOM     58  CB  ALA A   9      32.318  19.635   1.531  0.00  0.00    +0.031 C 
BRANCH  57  59
ATOM     59  C   ALA A   9      31.965  17.774   3.200  0.00  0.00    +0.241 C 
ATOM     60  O   ALA A   9      31.204  17.954   4.149  0.00  0.00    -0.273 OA
ATOM     61  N   GLU A  10      32.021  16.622   2.541  0.00  0.00    -0.298 N 
ATOM     62  H   GLU A  10      32.676  16.519   1.740  0.00  0.00    +0.150 HD
BRANCH  61  63
ATOM     63  CA  GLU A  10      31.172  15.499   2.931  0.00  0.00    +0.137 C 
BRANCH  63  64
ATOM     64  C   GLU A  10      31.514  15.102   4.350  0.00  0.00    +0.227 C 
ATOM     65  O   GLU A  10      30.630  14.863   5.166  0.00  0.00    -0.286 OA
ENDBRANCH  63  64
BRANCH  63  66
ATOM     66  CB  GLU A  10      31.408  14.270   2.055  0.00  0.00    +0.039 C 
BRANCH  66  67
ATOM     67  CG  GLU A  10      30.941  14.361   0.629  0.00  0.00    +0.116 C 
BRANCH  67  68
ATOM     68  CD  GLU A  10      30.974  12.994  -0.039  0.00  0.00    +0.365 C 
ATOM     69  OE2 GLU A  10      30.099  12.161   0.283  0.00  0.00    -0.246 OA
ATOM     70  OE1 GLU A  10      31.882  12.747  -0.868  0.00  0.00    -0.246 OA
ENDBRANCH  67  68
ENDBRANCH  66  67
ENDBRANCH  63  66
ENDBRANCH  61  63
ENDBRANCH  57  59
ENDBRANCH  55  57
ENDBRANCH  52  53
BRANCH  52  71
ATOM     71  CB  LEU A   8      37.371  18.270   2.854  0.00  0.00    +0.029 C 
BRANCH  71  72
ATOM     72  CG  LEU A   8      38.829  17.788   2.713  0.00  0.00    +0.002 C 
ATOM     73  CD2 LEU A   8      39.220  16.933   3.932  0.00  0.00    +0.000 C 
ATOM     74  CD1 LEU A   8      39.764  18.985   2.573  0.00  0.00    +0.000 C 
ENDBRANCH  71  72
ENDBRANCH  52  71
ENDBRANCH  50  52
ENDBRANCH  47  48
BRANCH  47  75
ATOM     75  CB  ARG A   7      36.597  13.772   0.024  0.00  0.00    +0.033 C 
BRANCH  75  76
ATOM     76  CG  ARG A   7      36.403  12.772  -1.129  0.00  0.00    +0.045 C 
BRANCH  76  77
ATOM     77  CD  ARG A   7      37.708  12.103  -1.597  0.00  0.00    +0.174 C 
BRANCH  77  78
ATOM     78  NE  ARG A   7      37.473  11.084  -2.625  0.00  0.00    -0.265 N 
ATOM     79  CZ  ARG A   7      36.707  10.002  -2.456  0.00  0.00    +0.342 C 
ATOM     80  NH2 ARG A   7      36.088   9.785  -1.299  0.00  0.00    -0.292 N 
ATOM     81 HH21 ARG A   7      36.198  10.460  -0.516  0.00  0.00    +0.255 HD
ATOM     82 HH22 ARG A   7      35.494   8.940  -1.177  0.00  0.00    +0.255 HD
ATOM     83  NH1 ARG A   7      36.566   9.123  -3.441  0.00  0.00    -0.292 N 
ATOM     84 HH11 ARG A   7      35.969   8.282  -3.306  0.00  0.00    +0.255 HD
ATOM     85 HH12 ARG A   7      37.052   9.275  -4.348  0.00  0.00    +0.255 HD
ATOM     86  HE  ARG A   7      37.934  11.212  -3.548  0.00  0.00    +0.259 HD
ENDBRANCH  77  78
ENDBRANCH  76  77
ENDBRANCH  75  76
ENDBRANCH  47  75
ENDBRANCH   3  47
TORSDOF 33
REMARK  Name = ../refined-set-2016/4ryd/4ryd_pocket.pdb
REMARK  255 active torsions:
REMARK  status: ('A' for Active; 'I' for Inactive)
REMARK    1  A    between atoms: _1  and  _3
REMARK    2  A    between atoms: _3  and  _4
REMARK    3  A    between atoms: _3  and  _6
REMARK    4  A    between atoms: _6  and  _7
REMARK    5  A    between atoms: _10  and  _12
REMARK    6  A    between atoms: _12  and  _13
REMARK    7  A    between atoms: _12  and  _15
REMARK    8  A    between atoms: _15  and  _16
REMARK    9  A    between atoms: _19  and  _21
REMARK   10  A    between atoms: _21  and  _22
REMARK   11  A    between atoms: _24  and  _26
REMARK   12  A    between atoms: _26  and  _27
REMARK   13  A    between atoms: _26  and  _29
REMARK   14  A    between atoms: _29  and  _30
REMARK   15  A    between atoms: _35  and  _37
REMARK   16  A    between atoms: _37  and  _38
REMARK   17  A    between atoms: _37  and  _40
REMARK   18  A    between atoms: _40  and  _41
REMARK   19  A    between atoms: _41  and  _42
REMARK   20  A    between atoms: _42  and  _43
REMARK   21  A    between atoms: _52  and  _54
REMARK   22  A    between atoms: _54  and  _55
REMARK   23  A    between atoms: _54  and  _57
REMARK   24  A    between atoms: _57  and  _58
REMARK   25  A    between atoms: _61  and  _63
REMARK   26  A    between atoms: _63  and  _64
REMARK   27  A    between atoms: _63  and  _66
REMARK   28  A    between atoms: _66  and  _67
REMARK   29  A    between atoms: _72  and  _74
REMARK   30  A    between atoms: _74  and  _75
REMARK   31  A    between atoms: _74  and  _77
REMARK   32  A    between atoms: _77  and  _78
REMARK   33  A    between atoms: _81  and  _83
REMARK   34  A    between atoms: _83  and  _84
REMARK   35  A    between atoms: _83  and  _86
REMARK   36  A    between atoms: _86  and  _87
REMARK   37  A    between atoms: _92  and  _94
REMARK   38  A    between atoms: _94  and  _95
REMARK   39  A    between atoms: _94  and  _97
REMARK   40  A    between atoms: _97  and  _98
REMARK   41  A    between atoms: _98  and  _99
REMARK   42  A    between atoms: _99  and  _100
REMARK   43  A    between atoms: _109  and  _111
REMARK   44  A    between atoms: _111  and  _112
REMARK   45  A    between atoms: _111  and  _114
REMARK   46  A    between atoms: _114  and  _115
REMARK   47  A    between atoms: _120  and  _122
REMARK   48  A    between atoms: _122  and  _123
REMARK   49  A    between atoms: _125  and  _127
REMARK   50  A    between atoms: _127  and  _128
REMARK   51  A    between atoms: _127  and  _130
REMARK   52  A    between atoms: _130  and  _131
REMARK   53  A    between atoms: _134  and  _136
REMARK   54  A    between atoms: _136  and  _137
REMARK   55  A    between atoms: _136  and  _139
REMARK   56  A    between atoms: _141  and  _143
REMARK   57  A    between atoms: _143  and  _144
REMARK   58  A    between atoms: _143  and  _146
REMARK   59  A    between atoms: _146  and  _147
REMARK   60  A    between atoms: _147  and  _148
REMARK   61  A    between atoms: _148  and  _149
REMARK   62  A    between atoms: _158  and  _160
REMARK   63  A    between atoms: _160  and  _161
REMARK   64  A    between atoms: _160  and  _163
REMARK   65  A    between atoms: _163  and  _164
REMARK   66  A    between atoms: _164  and  _165
REMARK   67  A    between atoms: _167  and  _169
REMARK   68  A    between atoms: _169  and  _170
REMARK   69  A    between atoms: _169  and  _172
REMARK   70  A    between atoms: _172  and  _173
REMARK   71  A    between atoms: _176  and  _178
REMARK   72  A    between atoms: _178  and  _179
REMARK   73  A    between atoms: _178  and  _181
REMARK   74  A    between atoms: _181  and  _182
REMARK   75  A    between atoms: _185  and  _187
REMARK   76  A    between atoms: _187  and  _188
REMARK   77  A    between atoms: _190  and  _192
REMARK   78  A    between atoms: _192  and  _193
REMARK   79  A    between atoms: _192  and  _195
REMARK   80  A    between atoms: _195  and  _196
REMARK   81  A    between atoms: _196  and  _197
REMARK   82  A    between atoms: _200  and  _202
REMARK   83  A    between atoms: _202  and  _203
REMARK   84  A    between atoms: _202  and  _205
REMARK   85  A    between atoms: _208  and  _210
REMARK   86  A    between atoms: _210  and  _211
REMARK   87  A    between atoms: _210  and  _213
REMARK   88  A    between atoms: _213  and  _214
REMARK   89  A    between atoms: _217  and  _219
REMARK   90  A    between atoms: _219  and  _220
REMARK   91  A    between atoms: _219  and  _222
REMARK   92  A    between atoms: _222  and  _223
REMARK   93  A    between atoms: _226  and  _228
REMARK   94  A    between atoms: _228  and  _229
REMARK   95  A    between atoms: _232  and  _234
REMARK   96  A    between atoms: _234  and  _235
REMARK   97  A    between atoms: _234  and  _237
REMARK   98  A    between atoms: _240  and  _242
REMARK   99  A    between atoms: _242  and  _243
REMARK  100  A    between atoms: _242  and  _245
REMARK  101  A    between atoms: _245  and  _246
REMARK  102  A    between atoms: _246  and  _247
REMARK  103  A    between atoms: _250  and  _252
REMARK  104  A    between atoms: _252  and  _253
REMARK  105  A    between atoms: _256  and  _258
REMARK  106  A    between atoms: _258  and  _259
REMARK  107  A    between atoms: _262  and  _264
REMARK  108  A    between atoms: _264  and  _265
REMARK  109  A    between atoms: _264  and  _267
REMARK  110  A    between atoms: _267  and  _268
REMARK  111  A    between atoms: _270  and  _272
REMARK  112  A    between atoms: _272  and  _273
REMARK  113  A    between atoms: _272  and  _275
REMARK  114  A    between atoms: _275  and  _276
REMARK  115  A    between atoms: _286  and  _288
REMARK  116  A    between atoms: _288  and  _289
REMARK  117  A    between atoms: _292  and  _293
REMARK  118  A    between atoms: _298  and  _300
REMARK  119  A    between atoms: _300  and  _301
REMARK  120  A    between atoms: _300  and  _303
REMARK  121  A    between atoms: _303  and  _304
REMARK  122  A    between atoms: _304  and  _305
REMARK  123  A    between atoms: _308  and  _310
REMARK  124  A    between atoms: _310  and  _311
REMARK  125  A    between atoms: _310  and  _313
REMARK  126  A    between atoms: _313  and  _314
REMARK  127  A    between atoms: _317  and  _319
REMARK  128  A    between atoms: _319  and  _320
REMARK  129  A    between atoms: _319  and  _322
REMARK  130  A    between atoms: _322  and  _323
REMARK  131  A    between atoms: _326  and  _328
REMARK  132  A    between atoms: _328  and  _329
REMARK  133  A    between atoms: _328  and  _331
REMARK  134  A    between atoms: _331  and  _332
REMARK  135  A    between atoms: _335  and  _337
REMARK  136  A    between atoms: _337  and  _338
REMARK  137  A    between atoms: _337  and  _340
REMARK  138  A    between atoms: _343  and  _345
REMARK  139  A    between atoms: _345  and  _346
REMARK  140  A    between atoms: _345  and  _348
REMARK  141  A    between atoms: _348  and  _349
REMARK  142  A    between atoms: _352  and  _354
REMARK  143  A    between atoms: _354  and  _355
REMARK  144  A    between atoms: _358  and  _359
REMARK  145  A    between atoms: _364  and  _366
REMARK  146  A    between atoms: _366  and  _367
REMARK  147  A    between atoms: _370  and  _372
REMARK  148  A    between atoms: _372  and  _373
REMARK  149  A    between atoms: _372  and  _375
REMARK  150  A    between atoms: _375  and  _376
REMARK  151  A    between atoms: _376  and  _377
REMARK  152  A    between atoms: _377  and  _378
REMARK  153  A    between atoms: _387  and  _389
REMARK  154  A    between atoms: _389  and  _390
REMARK  155  A    between atoms: _389  and  _392
REMARK  156  A    between atoms: _392  and  _393
REMARK  157  A    between atoms: _396  and  _398
REMARK  158  A    between atoms: _398  and  _399
REMARK  159  A    between atoms: _402  and  _404
REMARK  160  A    between atoms: _404  and  _405
REMARK  161  A    between atoms: _404  and  _407
REMARK  162  A    between atoms: _407  and  _408
REMARK  163  A    between atoms: _408  and  _409
REMARK  164  A    between atoms: _412  and  _414
REMARK  165  A    between atoms: _414  and  _415
REMARK  166  A    between atoms: _414  and  _417
REMARK  167  A    between atoms: _417  and  _418
REMARK  168  A    between atoms: _428  and  _430
REMARK  169  A    between atoms: _430  and  _431
REMARK  170  A    between atoms: _434  and  _436
REMARK  171  A    between atoms: _436  and  _437
REMARK  172  A    between atoms: _436  and  _439
REMARK  173  A    between atoms: _439  and  _440
REMARK  174  A    between atoms: _442  and  _444
REMARK  175  A    between atoms: _444  and  _445
REMARK  176  A    between atoms: _447  and  _449
REMARK  177  A    between atoms: _449  and  _450
REMARK  178  A    between atoms: _449  and  _452
REMARK  179  A    between atoms: _452  and  _453
REMARK  180  A    between atoms: _458  and  _460
REMARK  181  A    between atoms: _460  and  _461
REMARK  182  A    between atoms: _463  and  _465
REMARK  183  A    between atoms: _465  and  _466
REMARK  184  A    between atoms: _465  and  _468
REMARK  185  A    between atoms: _468  and  _469
REMARK  186  A    between atoms: _469  and  _471
REMARK  187  A    between atoms: _471  and  CA_629
REMARK  188  A    between atoms: _472  and  _474
REMARK  189  A    between atoms: _474  and  _475
REMARK  190  A    between atoms: _474  and  _477
REMARK  191  A    between atoms: _477  and  _478
REMARK  192  A    between atoms: _480  and  _482
REMARK  193  A    between atoms: _482  and  _483
REMARK  194  A    between atoms: _482  and  _485
REMARK  195  A    between atoms: _487  and  _489
REMARK  196  A    between atoms: _489  and  _490
REMARK  197  A    between atoms: _489  and  _492
REMARK  198  A    between atoms: _494  and  _496
REMARK  199  A    between atoms: _496  and  _497
REMARK  200  A    between atoms: _496  and  _499
REMARK  201  A    between atoms: _499  and  _500
REMARK  202  A    between atoms: _503  and  _505
REMARK  203  A    between atoms: _505  and  _506
REMARK  204  A    between atoms: _508  and  _510
REMARK  205  A    between atoms: _510  and  _511
REMARK  206  A    between atoms: _510  and  _513
REMARK  207  A    between atoms: _513  and  _514
REMARK  208  A    between atoms: _519  and  _520
REMARK  209  A    between atoms: _522  and  _524
REMARK  210  A    between atoms: _524  and  _525
REMARK  211  A    between atoms: _524  and  _527
REMARK  212  A    between atoms: _527  and  _528
REMARK  213  A    between atoms: _531  and  _533
REMARK  214  A    between atoms: _533  and  _534
REMARK  215  A    between atoms: _533  and  _536
REMARK  216  A    between atoms: _536  and  _537
REMARK  217  A    between atoms: _542  and  _544
REMARK  218  A    between atoms: _544  and  _545
REMARK  219  A    between atoms: _544  and  _547
REMARK  220  A    between atoms: _547  and  _548
REMARK  221  A    between atoms: _551  and  _553
REMARK  222  A    between atoms: _553  and  _554
REMARK  223  A    between atoms: _553  and  _556
REMARK  224  A    between atoms: _556  and  _557
REMARK  225  A    between atoms: _559  and  _561
REMARK  226  A    between atoms: _561  and  _562
REMARK  227  A    between atoms: _561  and  _564
REMARK  228  A    between atoms: _564  and  _565
REMARK  229  A    between atoms: _568  and  _570
REMARK  230  A    between atoms: _570  and  _571
REMARK  231  A    between atoms: _570  and  _573
REMARK  232  A    between atoms: _573  and  _574
REMARK  233  A    between atoms: _574  and  _575
REMARK  234  A    between atoms: _578  and  _580
REMARK  235  A    between atoms: _580  and  _581
REMARK  236  A    between atoms: _580  and  _583
REMARK  237  A    between atoms: _583  and  _584
REMARK  238  A    between atoms: _587  and  _589
REMARK  239  A    between atoms: _589  and  _590
REMARK  240  A    between atoms: _592  and  _594
REMARK  241  A    between atoms: _594  and  _595
REMARK  242  A    between atoms: _594  and  _597
REMARK  243  A    between atoms: _597  and  _598
REMARK  244  A    between atoms: _601  and  _603
REMARK  245  A    between atoms: _603  and  _604
REMARK  246  A    between atoms: _603  and  _606
REMARK  247  A    between atoms: _606  and  _607
REMARK  248  A    between atoms: _609  and  _611
REMARK  249  A    between atoms: _611  and  _612
REMARK  250  A    between atoms: _615  and  _617
REMARK  251  A    between atoms: _617  and  _618
REMARK  252  A    between atoms: _617  and  _620
REMARK  253  A    between atoms: _620  and  _621
REMARK  254  A    between atoms: _623  and  _625
REMARK  255  A    between atoms: _625  and  _626
REMARK                            x       y       z     vdW  Elec       q    Type
REMARK                         _______ _______ _______ _____ _____    ______ ____
ROOT
ATOM      1  CA  SER A   3      17.236  24.613  -3.098  0.00  0.00    +0.178 C 
ENDROOT
BRANCH   1   3
ATOM      2  C   ALA A   2      18.537  26.002  -1.585  0.00  0.00    +0.241 C 
ATOM      3  N   SER A   3      17.340  25.600  -2.019  0.00  0.00    -0.295 N 
ATOM      4  H   SER A   3      16.477  25.989  -1.589  0.00  0.00    +0.150 HD
ATOM      5  O   ALA A   2      19.584  25.610  -2.092  0.00  0.00    -0.273 OA
BRANCH   2   6
ATOM      6  CA  ALA A   2      18.582  26.988  -0.409  0.00  0.00    +0.149 C 
ATOM      7  CB  ALA A   2      19.128  28.335  -0.860  0.00  0.00    +0.031 C 
BRANCH   6  10
ATOM      8  C   TRP A   1      19.091  25.425   1.391  0.00  0.00    +0.239 C 
ATOM      9  O   TRP A   1      17.940  24.999   1.405  0.00  0.00    -0.274 OA
ATOM     10  N   ALA A   2      19.485  26.390   0.574  0.00  0.00    -0.297 N 
ATOM     11  H   ALA A   2      20.465  26.733   0.633  0.00  0.00    +0.150 HD
BRANCH   8  12
ATOM     12  CA  TRP A   1      20.160  24.848   2.323  0.00  0.00    +0.149 C 
BRANCH  12  13
ATOM     13  N   TRP A   1      19.697  24.533   3.672  0.00  0.00    -0.238 NA
ATOM     14  H   TRP A   1      18.879  23.903   3.796  0.00  0.00    +0.142 HD
ENDBRANCH  12  13
BRANCH  12  15
ATOM     15  CB  TRP A   1      20.727  23.580   1.673  0.00  0.00    +0.054 C 
BRANCH  15  16
ATOM     16  CG  TRP A   1      21.997  23.828   0.920  0.00  0.00    -0.002 A 
ATOM     17  CD2 TRP A   1      23.325  23.758   1.454  0.00  0.00    +0.013 A 
ATOM     18  CE3 TRP A   1      23.853  23.382   2.700  0.00  0.00    +0.001 A 
ATOM     19  CZ3 TRP A   1      25.238  23.442   2.886  0.00  0.00    +0.000 A 
ATOM     20  CH2 TRP A   1      26.092  23.871   1.850  0.00  0.00    +0.001 A 
ATOM     21  CZ2 TRP A   1      25.599  24.245   0.619  0.00  0.00    +0.017 A 
ATOM     22  CE2 TRP A   1      24.212  24.185   0.433  0.00  0.00    +0.056 A 
ATOM     23  NE1 TRP A   1      23.454  24.491  -0.666  0.00  0.00    -0.352 N 
ATOM     24  HE1 TRP A   1      23.821  24.834  -1.577  0.00  0.00    +0.166 HD
ATOM     25  CD1 TRP A   1      22.123  24.271  -0.369  0.00  0.00    +0.068 A 
ENDBRANCH  15  16
ENDBRANCH  12  15
ENDBRANCH   8  12
ENDBRANCH   6  10
ENDBRANCH   2   6
ENDBRANCH   1   3
BRANCH   1  26
ATOM     26  C   SER A   3      17.721  25.021  -4.490  0.00  0.00    +0.243 C 
ATOM     27  N   GLY A   4      17.843  26.312  -4.773  0.00  0.00    -0.295 N 
ATOM     28  H   GLY A   4      17.581  27.035  -4.073  0.00  0.00    +0.150 HD
ATOM     29  O   SER A   3      17.986  24.155  -5.315  0.00  0.00    -0.273 OA
BRANCH  27  30
ATOM     30  CA  GLY A   4      18.352  26.697  -6.086  0.00  0.00    +0.176 C 
BRANCH  30  31
ATOM     31  C   GLY A   4      17.556  27.707  -6.892  0.00  0.00    +0.243 C 
ATOM     32  O   GLY A   4      16.353  27.852  -6.691  0.00  0.00    -0.273 OA
ATOM     33  N   ASN A   5      18.227  28.399  -7.812  0.00  0.00    -0.297 N 
ATOM     34  H   ASN A   5      19.244  28.218  -7.932  0.00  0.00    +0.150 HD
BRANCH  33  35
ATOM     35  CA  ASN A   5      17.586  29.402  -8.658  0.00  0.00    +0.158 C 
BRANCH  35  36
ATOM     36  C   ASN A   5      17.549  28.978 -10.125  0.00  0.00    +0.241 C 
ATOM     37  N   GLY A   6      17.660  27.683 -10.404  0.00  0.00    -0.296 N 
ATOM     38  H   GLY A   6      17.739  26.990  -9.633  0.00  0.00    +0.150 HD
ATOM     39  O   ASN A   5      17.419  29.828 -11.003  0.00  0.00    -0.273 OA
BRANCH  37  40
ATOM     40  CA  GLY A   6      17.671  27.235 -11.791  0.00  0.00    +0.163 C 
BRANCH  40  41
ATOM     41  C   GLY A   6      16.351  26.983 -12.517  0.00  0.00    +0.229 C 
ATOM     42  O   GLY A   6      16.335  26.325 -13.565  0.00  0.00    -0.286 OA
ENDBRANCH  40  41
ENDBRANCH  37  40
ENDBRANCH  35  36
BRANCH  35  43
ATOM     43  CB  ASN A   5      18.339  30.743  -8.599  0.00  0.00    +0.114 C 
BRANCH  43  44
ATOM     44  CG  ASN A   5      17.962  31.599  -7.403  0.00  0.00    +0.222 C 
ATOM     45  OD1 ASN A   5      16.862  31.496  -6.858  0.00  0.00    -0.275 OA
ATOM     46  ND2 ASN A   5      18.876  32.484  -7.010  0.00  0.00    -0.329 N 
ATOM     47 HD21 ASN A   5      18.673  33.122  -6.214  0.00  0.00    +0.145 HD
ATOM     48 HD22 ASN A   5      19.792  32.537  -7.499  0.00  0.00    +0.145 HD
ENDBRANCH  43  44
ENDBRANCH  35  43
ENDBRANCH  33  35
ENDBRANCH  30  31
ENDBRANCH  27  30
ENDBRANCH   1  26
BRANCH   1  49
ATOM     49  CB  SER A   3      15.805  24.056  -3.195  0.00  0.00    +0.166 C 
BRANCH  49  50
ATOM     50  OG  SER A   3      14.875  25.070  -3.496  0.00  0.00    -0.380 OA
ATOM     51  H   SER A   3      15.110  25.484  -4.364  0.00  0.00    +0.211 HD
ENDBRANCH  49  50
ENDBRANCH   1  49
TORSDOF 18
REMARK  Name = ../refined-set-2016/4ryd/4ryd_pocket.pdb
REMARK  255 active torsions:
REMARK  status: ('A' for Active; 'I' for Inactive)
REMARK    1  A    between atoms: _1  and  _3
REMARK    2  A    between atoms: _3  and  _4
REMARK    3  A    between atoms: _3  and  _6
REMARK    4  A    between atoms: _6  and  _7
REMARK    5  A    between atoms: _10  and  _12
REMARK    6  A    between atoms: _12  and  _13
REMARK    7  A    between atoms: _12  and  _15
REMARK    8  A    between atoms: _15  and  _16
REMARK    9  A    between atoms: _19  and  _21
REMARK   10  A    between atoms: _21  and  _22
REMARK   11  A    between atoms: _24  and  _26
REMARK   12  A    between atoms: _26  and  _27
REMARK   13  A    between atoms: _26  and  _29
REMARK   14  A    between atoms: _29  and  _30
REMARK   15  A    between atoms: _35  and  _37
REMARK   16  A    between atoms: _37  and  _38
REMARK   17  A    between atoms: _37  and  _40
REMARK   18  A    between atoms: _40  and  _41
REMARK   19  A    between atoms: _41  and  _42
REMARK   20  A    between atoms: _42  and  _43
REMARK   21  A    between atoms: _52  and  _54
REMARK   22  A    between atoms: _54  and  _55
REMARK   23  A    between atoms: _54  and  _57
REMARK   24  A    between atoms: _57  and  _58
REMARK   25  A    between atoms: _61  and  _63
REMARK   26  A    between atoms: _63  and  _64
REMARK   27  A    between atoms: _63  and  _66
REMARK   28  A    between atoms: _66  and  _67
REMARK   29  A    between atoms: _72  and  _74
REMARK   30  A    between atoms: _74  and  _75
REMARK   31  A    between atoms: _74  and  _77
REMARK   32  A    between atoms: _77  and  _78
REMARK   33  A    between atoms: _81  and  _83
REMARK   34  A    between atoms: _83  and  _84
REMARK   35  A    between atoms: _83  and  _86
REMARK   36  A    between atoms: _86  and  _87
REMARK   37  A    between atoms: _92  and  _94
REMARK   38  A    between atoms: _94  and  _95
REMARK   39  A    between atoms: _94  and  _97
REMARK   40  A    between atoms: _97  and  _98
REMARK   41  A    between atoms: _98  and  _99
REMARK   42  A    between atoms: _99  and  _100
REMARK   43  A    between atoms: _109  and  _111
REMARK   44  A    between atoms: _111  and  _112
REMARK   45  A    between atoms: _111  and  _114
REMARK   46  A    between atoms: _114  and  _115
REMARK   47  A    between atoms: _120  and  _122
REMARK   48  A    between atoms: _122  and  _123
REMARK   49  A    between atoms: _125  and  _127
REMARK   50  A    between atoms: _127  and  _128
REMARK   51  A    between atoms: _127  and  _130
REMARK   52  A    between atoms: _130  and  _131
REMARK   53  A    between atoms: _134  and  _136
REMARK   54  A    between atoms: _136  and  _137
REMARK   55  A    between atoms: _136  and  _139
REMARK   56  A    between atoms: _141  and  _143
REMARK   57  A    between atoms: _143  and  _144
REMARK   58  A    between atoms: _143  and  _146
REMARK   59  A    between atoms: _146  and  _147
REMARK   60  A    between atoms: _147  and  _148
REMARK   61  A    between atoms: _148  and  _149
REMARK   62  A    between atoms: _158  and  _160
REMARK   63  A    between atoms: _160  and  _161
REMARK   64  A    between atoms: _160  and  _163
REMARK   65  A    between atoms: _163  and  _164
REMARK   66  A    between atoms: _164  and  _165
REMARK   67  A    between atoms: _167  and  _169
REMARK   68  A    between atoms: _169  and  _170
REMARK   69  A    between atoms: _169  and  _172
REMARK   70  A    between atoms: _172  and  _173
REMARK   71  A    between atoms: _176  and  _178
REMARK   72  A    between atoms: _178  and  _179
REMARK   73  A    between atoms: _178  and  _181
REMARK   74  A    between atoms: _181  and  _182
REMARK   75  A    between atoms: _185  and  _187
REMARK   76  A    between atoms: _187  and  _188
REMARK   77  A    between atoms: _190  and  _192
REMARK   78  A    between atoms: _192  and  _193
REMARK   79  A    between atoms: _192  and  _195
REMARK   80  A    between atoms: _195  and  _196
REMARK   81  A    between atoms: _196  and  _197
REMARK   82  A    between atoms: _200  and  _202
REMARK   83  A    between atoms: _202  and  _203
REMARK   84  A    between atoms: _202  and  _205
REMARK   85  A    between atoms: _208  and  _210
REMARK   86  A    between atoms: _210  and  _211
REMARK   87  A    between atoms: _210  and  _213
REMARK   88  A    between atoms: _213  and  _214
REMARK   89  A    between atoms: _217  and  _219
REMARK   90  A    between atoms: _219  and  _220
REMARK   91  A    between atoms: _219  and  _222
REMARK   92  A    between atoms: _222  and  _223
REMARK   93  A    between atoms: _226  and  _228
REMARK   94  A    between atoms: _228  and  _229
REMARK   95  A    between atoms: _232  and  _234
REMARK   96  A    between atoms: _234  and  _235
REMARK   97  A    between atoms: _234  and  _237
REMARK   98  A    between atoms: _240  and  _242
REMARK   99  A    between atoms: _242  and  _243
REMARK  100  A    between atoms: _242  and  _245
REMARK  101  A    between atoms: _245  and  _246
REMARK  102  A    between atoms: _246  and  _247
REMARK  103  A    between atoms: _250  and  _252
REMARK  104  A    between atoms: _252  and  _253
REMARK  105  A    between atoms: _256  and  _258
REMARK  106  A    between atoms: _258  and  _259
REMARK  107  A    between atoms: _262  and  _264
REMARK  108  A    between atoms: _264  and  _265
REMARK  109  A    between atoms: _264  and  _267
REMARK  110  A    between atoms: _267  and  _268
REMARK  111  A    between atoms: _270  and  _272
REMARK  112  A    between atoms: _272  and  _273
REMARK  113  A    between atoms: _272  and  _275
REMARK  114  A    between atoms: _275  and  _276
REMARK  115  A    between atoms: _286  and  _288
REMARK  116  A    between atoms: _288  and  _289
REMARK  117  A    between atoms: _292  and  _293
REMARK  118  A    between atoms: _298  and  _300
REMARK  119  A    between atoms: _300  and  _301
REMARK  120  A    between atoms: _300  and  _303
REMARK  121  A    between atoms: _303  and  _304
REMARK  122  A    between atoms: _304  and  _305
REMARK  123  A    between atoms: _308  and  _310
REMARK  124  A    between atoms: _310  and  _311
REMARK  125  A    between atoms: _310  and  _313
REMARK  126  A    between atoms: _313  and  _314
REMARK  127  A    between atoms: _317  and  _319
REMARK  128  A    between atoms: _319  and  _320
REMARK  129  A    between atoms: _319  and  _322
REMARK  130  A    between atoms: _322  and  _323
REMARK  131  A    between atoms: _326  and  _328
REMARK  132  A    between atoms: _328  and  _329
REMARK  133  A    between atoms: _328  and  _331
REMARK  134  A    between atoms: _331  and  _332
REMARK  135  A    between atoms: _335  and  _337
REMARK  136  A    between atoms: _337  and  _338
REMARK  137  A    between atoms: _337  and  _340
REMARK  138  A    between atoms: _343  and  _345
REMARK  139  A    between atoms: _345  and  _346
REMARK  140  A    between atoms: _345  and  _348
REMARK  141  A    between atoms: _348  and  _349
REMARK  142  A    between atoms: _352  and  _354
REMARK  143  A    between atoms: _354  and  _355
REMARK  144  A    between atoms: _358  and  _359
REMARK  145  A    between atoms: _364  and  _366
REMARK  146  A    between atoms: _366  and  _367
REMARK  147  A    between atoms: _370  and  _372
REMARK  148  A    between atoms: _372  and  _373
REMARK  149  A    between atoms: _372  and  _375
REMARK  150  A    between atoms: _375  and  _376
REMARK  151  A    between atoms: _376  and  _377
REMARK  152  A    between atoms: _377  and  _378
REMARK  153  A    between atoms: _387  and  _389
REMARK  154  A    between atoms: _389  and  _390
REMARK  155  A    between atoms: _389  and  _392
REMARK  156  A    between atoms: _392  and  _393
REMARK  157  A    between atoms: _396  and  _398
REMARK  158  A    between atoms: _398  and  _399
REMARK  159  A    between atoms: _402  and  _404
REMARK  160  A    between atoms: _404  and  _405
REMARK  161  A    between atoms: _404  and  _407
REMARK  162  A    between atoms: _407  and  _408
REMARK  163  A    between atoms: _408  and  _409
REMARK  164  A    between atoms: _412  and  _414
REMARK  165  A    between atoms: _414  and  _415
REMARK  166  A    between atoms: _414  and  _417
REMARK  167  A    between atoms: _417  and  _418
REMARK  168  A    between atoms: _428  and  _430
REMARK  169  A    between atoms: _430  and  _431
REMARK  170  A    between atoms: _434  and  _436
REMARK  171  A    between atoms: _436  and  _437
REMARK  172  A    between atoms: _436  and  _439
REMARK  173  A    between atoms: _439  and  _440
REMARK  174  A    between atoms: _442  and  _444
REMARK  175  A    between atoms: _444  and  _445
REMARK  176  A    between atoms: _447  and  _449
REMARK  177  A    between atoms: _449  and  _450
REMARK  178  A    between atoms: _449  and  _452
REMARK  179  A    between atoms: _452  and  _453
REMARK  180  A    between atoms: _458  and  _460
REMARK  181  A    between atoms: _460  and  _461
REMARK  182  A    between atoms: _463  and  _465
REMARK  183  A    between atoms: _465  and  _466
REMARK  184  A    between atoms: _465  and  _468
REMARK  185  A    between atoms: _468  and  _469
REMARK  186  A    between atoms: _469  and  _471
REMARK  187  A    between atoms: _471  and  CA_629
REMARK  188  A    between atoms: _472  and  _474
REMARK  189  A    between atoms: _474  and  _475
REMARK  190  A    between atoms: _474  and  _477
REMARK  191  A    between atoms: _477  and  _478
REMARK  192  A    between atoms: _480  and  _482
REMARK  193  A    between atoms: _482  and  _483
REMARK  194  A    between atoms: _482  and  _485
REMARK  195  A    between atoms: _487  and  _489
REMARK  196  A    between atoms: _489  and  _490
REMARK  197  A    between atoms: _489  and  _492
REMARK  198  A    between atoms: _494  and  _496
REMARK  199  A    between atoms: _496  and  _497
REMARK  200  A    between atoms: _496  and  _499
REMARK  201  A    between atoms: _499  and  _500
REMARK  202  A    between atoms: _503  and  _505
REMARK  203  A    between atoms: _505  and  _506
REMARK  204  A    between atoms: _508  and  _510
REMARK  205  A    between atoms: _510  and  _511
REMARK  206  A    between atoms: _510  and  _513
REMARK  207  A    between atoms: _513  and  _514
REMARK  208  A    between atoms: _519  and  _520
REMARK  209  A    between atoms: _522  and  _524
REMARK  210  A    between atoms: _524  and  _525
REMARK  211  A    between atoms: _524  and  _527
REMARK  212  A    between atoms: _527  and  _528
REMARK  213  A    between atoms: _531  and  _533
REMARK  214  A    between atoms: _533  and  _534
REMARK  215  A    between atoms: _533  and  _536
REMARK  216  A    between atoms: _536  and  _537
REMARK  217  A    between atoms: _542  and  _544
REMARK  218  A    between atoms: _544  and  _545
REMARK  219  A    between atoms: _544  and  _547
REMARK  220  A    between atoms: _547  and  _548
REMARK  221  A    between atoms: _551  and  _553
REMARK  222  A    between atoms: _553  and  _554
REMARK  223  A    between atoms: _553  and  _556
REMARK  224  A    between atoms: _556  and  _557
REMARK  225  A    between atoms: _559  and  _561
REMARK  226  A    between atoms: _561  and  _562
REMARK  227  A    between atoms: _561  and  _564
REMARK  228  A    between atoms: _564  and  _565
REMARK  229  A    between atoms: _568  and  _570
REMARK  230  A    between atoms: _570  and  _571
REMARK  231  A    between atoms: _570  and  _573
REMARK  232  A    between atoms: _573  and  _574
REMARK  233  A    between atoms: _574  and  _575
REMARK  234  A    between atoms: _578  and  _580
REMARK  235  A    between atoms: _580  and  _581
REMARK  236  A    between atoms: _580  and  _583
REMARK  237  A    between atoms: _583  and  _584
REMARK  238  A    between atoms: _587  and  _589
REMARK  239  A    between atoms: _589  and  _590
REMARK  240  A    between atoms: _592  and  _594
REMARK  241  A    between atoms: _594  and  _595
REMARK  242  A    between atoms: _594  and  _597
REMARK  243  A    between atoms: _597  and  _598
REMARK  244  A    between atoms: _601  and  _603
REMARK  245  A    between atoms: _603  and  _604
REMARK  246  A    between atoms: _603  and  _606
REMARK  247  A    between atoms: _606  and  _607
REMARK  248  A    between atoms: _609  and  _611
REMARK  249  A    between atoms: _611  and  _612
REMARK  250  A    between atoms: _615  and  _617
REMARK  251  A    between atoms: _617  and  _618
REMARK  252  A    between atoms: _617  and  _620
REMARK  253  A    between atoms: _620  and  _621
REMARK  254  A    between atoms: _623  and  _625
REMARK  255  A    between atoms: _625  and  _626
REMARK                            x       y       z     vdW  Elec       q    Type
REMARK                         _______ _______ _______ _____ _____    ______ ____
ROOT
ATOM      1  C   UNK A   1      16.505  21.807 -12.388  0.00  0.00    +0.000 C 
ATOM      2  N   SER A   2      17.162  20.769 -11.894  0.00  0.00    +0.000 N 
ATOM      3  H   SER A   2      18.132  20.585 -12.222  0.00  0.00    +0.000 HD
ATOM      4  O   UNK A   1      15.339  22.051 -12.088  0.00  0.00    +0.000 OA
ENDROOT
BRANCH   1   5
ATOM      5  C   UNK A   1      17.267  22.682 -13.397  0.00  0.00    +0.000 C 
BRANCH   5   6
ATOM      6  N   UNK A   1      16.364  23.441 -14.253  0.00  0.00    +0.000 NA
ATOM      7  H   UNK A   1      16.302  24.473 -14.144  0.00  0.00    +0.000 HD
ENDBRANCH   5   6
BRANCH   5   8
ATOM      8  C   UNK A   1      18.208  23.654 -12.668  0.00  0.00    +0.000 C 
BRANCH   8   9
ATOM      9  C   UNK A   1      19.464  22.977 -12.125  0.00  0.00    +0.000 C 
ATOM     10  O   UNK A   1      19.728  21.805 -12.457  0.00  0.00    +0.000 OA
BRANCH   9  11
ATOM     11  O   UNK A   1      20.199  23.637 -11.366  0.00  0.00    +0.000 OA
BRANCH  11  12
ATOM     12 CA   UNK A   1      20.325  23.832  -9.184  0.00  0.00    +0.000 Ca
ATOM     13  O   UNK A   1      20.724  21.649  -9.528  0.00  0.00    +0.000 OA
ENDBRANCH  11  12
ENDBRANCH   9  11
ENDBRANCH   8   9
ENDBRANCH   5   8
ENDBRANCH   1   5
BRANCH   2  14
ATOM     14  CA  SER A   2      16.569  19.875 -10.904  0.00  0.00    +0.000 C 
BRANCH  14  15
ATOM     15  C   SER A   2      17.441  19.904  -9.655  0.00  0.00    +0.000 C 
ATOM     16  N   CYS A   3      16.851  20.163  -8.491  0.00  0.00    +0.000 N 
ATOM     17  H   CYS A   3      15.826  20.331  -8.443  0.00  0.00    +0.000 HD
ATOM     18  O   SER A   2      18.649  19.682  -9.745  0.00  0.00    +0.000 OA
BRANCH  16  19
ATOM     19  CA  CYS A   3      17.663  20.206  -7.292  0.00  0.00    +0.000 C 
BRANCH  19  20
ATOM     20  CB  CYS A   3      16.959  20.958  -6.154  0.00  0.00    +0.000 C 
ATOM     21  SG  CYS A   3      15.148  20.803  -6.009  0.00  0.00    +0.000 S 
ENDBRANCH  19  20
BRANCH  19  22
ATOM     22  C   CYS A   3      18.152  18.847  -6.819  0.00  0.00    +0.000 C 
ATOM     23  O   CYS A   3      18.829  18.751  -5.791  0.00  0.00    +0.000 OA
ENDBRANCH  19  22
ENDBRANCH  16  19
ENDBRANCH  14  15
BRANCH  14  24
ATOM     24  CB  SER A   2      16.528  18.448 -11.432  0.00  0.00    +0.000 C 
BRANCH  24  25
ATOM     25  OG  SER A   2      16.381  17.532 -10.363  0.00  0.00    +0.000 OA
ATOM     26  H   SER A   2      15.538  17.723  -9.880  0.00  0.00    +0.000 HD
ENDBRANCH  24  25
ENDBRANCH  14  24
ENDBRANCH   2  14
TORSDOF 13
REMARK  Name = ../refined-set-2016/4ryd/4ryd_pocket.pdb
REMARK  255 active torsions:
REMARK  status: ('A' for Active; 'I' for Inactive)
REMARK    1  A    between atoms: _1  and  _3
REMARK    2  A    between atoms: _3  and  _4
REMARK    3  A    between atoms: _3  and  _6
REMARK    4  A    between atoms: _6  and  _7
REMARK    5  A    between atoms: _10  and  _12
REMARK    6  A    between atoms: _12  and  _13
REMARK    7  A    between atoms: _12  and  _15
REMARK    8  A    between atoms: _15  and  _16
REMARK    9  A    between atoms: _19  and  _21
REMARK   10  A    between atoms: _21  and  _22
REMARK   11  A    between atoms: _24  and  _26
REMARK   12  A    between atoms: _26  and  _27
REMARK   13  A    between atoms: _26  and  _29
REMARK   14  A    between atoms: _29  and  _30
REMARK   15  A    between atoms: _35  and  _37
REMARK   16  A    between atoms: _37  and  _38
REMARK   17  A    between atoms: _37  and  _40
REMARK   18  A    between atoms: _40  and  _41
REMARK   19  A    between atoms: _41  and  _42
REMARK   20  A    between atoms: _42  and  _43
REMARK   21  A    between atoms: _52  and  _54
REMARK   22  A    between atoms: _54  and  _55
REMARK   23  A    between atoms: _54  and  _57
REMARK   24  A    between atoms: _57  and  _58
REMARK   25  A    between atoms: _61  and  _63
REMARK   26  A    between atoms: _63  and  _64
REMARK   27  A    between atoms: _63  and  _66
REMARK   28  A    between atoms: _66  and  _67
REMARK   29  A    between atoms: _72  and  _74
REMARK   30  A    between atoms: _74  and  _75
REMARK   31  A    between atoms: _74  and  _77
REMARK   32  A    between atoms: _77  and  _78
REMARK   33  A    between atoms: _81  and  _83
REMARK   34  A    between atoms: _83  and  _84
REMARK   35  A    between atoms: _83  and  _86
REMARK   36  A    between atoms: _86  and  _87
REMARK   37  A    between atoms: _92  and  _94
REMARK   38  A    between atoms: _94  and  _95
REMARK   39  A    between atoms: _94  and  _97
REMARK   40  A    between atoms: _97  and  _98
REMARK   41  A    between atoms: _98  and  _99
REMARK   42  A    between atoms: _99  and  _100
REMARK   43  A    between atoms: _109  and  _111
REMARK   44  A    between atoms: _111  and  _112
REMARK   45  A    between atoms: _111  and  _114
REMARK   46  A    between atoms: _114  and  _115
REMARK   47  A    between atoms: _120  and  _122
REMARK   48  A    between atoms: _122  and  _123
REMARK   49  A    between atoms: _125  and  _127
REMARK   50  A    between atoms: _127  and  _128
REMARK   51  A    between atoms: _127  and  _130
REMARK   52  A    between atoms: _130  and  _131
REMARK   53  A    between atoms: _134  and  _136
REMARK   54  A    between atoms: _136  and  _137
REMARK   55  A    between atoms: _136  and  _139
REMARK   56  A    between atoms: _141  and  _143
REMARK   57  A    between atoms: _143  and  _144
REMARK   58  A    between atoms: _143  and  _146
REMARK   59  A    between atoms: _146  and  _147
REMARK   60  A    between atoms: _147  and  _148
REMARK   61  A    between atoms: _148  and  _149
REMARK   62  A    between atoms: _158  and  _160
REMARK   63  A    between atoms: _160  and  _161
REMARK   64  A    between atoms: _160  and  _163
REMARK   65  A    between atoms: _163  and  _164
REMARK   66  A    between atoms: _164  and  _165
REMARK   67  A    between atoms: _167  and  _169
REMARK   68  A    between atoms: _169  and  _170
REMARK   69  A    between atoms: _169  and  _172
REMARK   70  A    between atoms: _172  and  _173
REMARK   71  A    between atoms: _176  and  _178
REMARK   72  A    between atoms: _178  and  _179
REMARK   73  A    between atoms: _178  and  _181
REMARK   74  A    between atoms: _181  and  _182
REMARK   75  A    between atoms: _185  and  _187
REMARK   76  A    between atoms: _187  and  _188
REMARK   77  A    between atoms: _190  and  _192
REMARK   78  A    between atoms: _192  and  _193
REMARK   79  A    between atoms: _192  and  _195
REMARK   80  A    between atoms: _195  and  _196
REMARK   81  A    between atoms: _196  and  _197
REMARK   82  A    between atoms: _200  and  _202
REMARK   83  A    between atoms: _202  and  _203
REMARK   84  A    between atoms: _202  and  _205
REMARK   85  A    between atoms: _208  and  _210
REMARK   86  A    between atoms: _210  and  _211
REMARK   87  A    between atoms: _210  and  _213
REMARK   88  A    between atoms: _213  and  _214
REMARK   89  A    between atoms: _217  and  _219
REMARK   90  A    between atoms: _219  and  _220
REMARK   91  A    between atoms: _219  and  _222
REMARK   92  A    between atoms: _222  and  _223
REMARK   93  A    between atoms: _226  and  _228
REMARK   94  A    between atoms: _228  and  _229
REMARK   95  A    between atoms: _232  and  _234
REMARK   96  A    between atoms: _234  and  _235
REMARK   97  A    between atoms: _234  and  _237
REMARK   98  A    between atoms: _240  and  _242
REMARK   99  A    between atoms: _242  and  _243
REMARK  100  A    between atoms: _242  and  _245
REMARK  101  A    between atoms: _245  and  _246
REMARK  102  A    between atoms: _246  and  _247
REMARK  103  A    between atoms: _250  and  _252
REMARK  104  A    between atoms: _252  and  _253
REMARK  105  A    between atoms: _256  and  _258
REMARK  106  A    between atoms: _258  and  _259
REMARK  107  A    between atoms: _262  and  _264
REMARK  108  A    between atoms: _264  and  _265
REMARK  109  A    between atoms: _264  and  _267
REMARK  110  A    between atoms: _267  and  _268
REMARK  111  A    between atoms: _270  and  _272
REMARK  112  A    between atoms: _272  and  _273
REMARK  113  A    between atoms: _272  and  _275
REMARK  114  A    between atoms: _275  and  _276
REMARK  115  A    between atoms: _286  and  _288
REMARK  116  A    between atoms: _288  and  _289
REMARK  117  A    between atoms: _292  and  _293
REMARK  118  A    between atoms: _298  and  _300
REMARK  119  A    between atoms: _300  and  _301
REMARK  120  A    between atoms: _300  and  _303
REMARK  121  A    between atoms: _303  and  _304
REMARK  122  A    between atoms: _304  and  _305
REMARK  123  A    between atoms: _308  and  _310
REMARK  124  A    between atoms: _310  and  _311
REMARK  125  A    between atoms: _310  and  _313
REMARK  126  A    between atoms: _313  and  _314
REMARK  127  A    between atoms: _317  and  _319
REMARK  128  A    between atoms: _319  and  _320
REMARK  129  A    between atoms: _319  and  _322
REMARK  130  A    between atoms: _322  and  _323
REMARK  131  A    between atoms: _326  and  _328
REMARK  132  A    between atoms: _328  and  _329
REMARK  133  A    between atoms: _328  and  _331
REMARK  134  A    between atoms: _331  and  _332
REMARK  135  A    between atoms: _335  and  _337
REMARK  136  A    between atoms: _337  and  _338
REMARK  137  A    between atoms: _337  and  _340
REMARK  138  A    between atoms: _343  and  _345
REMARK  139  A    between atoms: _345  and  _346
REMARK  140  A    between atoms: _345  and  _348
REMARK  141  A    between atoms: _348  and  _349
REMARK  142  A    between atoms: _352  and  _354
REMARK  143  A    between atoms: _354  and  _355
REMARK  144  A    between atoms: _358  and  _359
REMARK  145  A    between atoms: _364  and  _366
REMARK  146  A    between atoms: _366  and  _367
REMARK  147  A    between atoms: _370  and  _372
REMARK  148  A    between atoms: _372  and  _373
REMARK  149  A    between atoms: _372  and  _375
REMARK  150  A    between atoms: _375  and  _376
REMARK  151  A    between atoms: _376  and  _377
REMARK  152  A    between atoms: _377  and  _378
REMARK  153  A    between atoms: _387  and  _389
REMARK  154  A    between atoms: _389  and  _390
REMARK  155  A    between atoms: _389  and  _392
REMARK  156  A    between atoms: _392  and  _393
REMARK  157  A    between atoms: _396  and  _398
REMARK  158  A    between atoms: _398  and  _399
REMARK  159  A    between atoms: _402  and  _404
REMARK  160  A    between atoms: _404  and  _405
REMARK  161  A    between atoms: _404  and  _407
REMARK  162  A    between atoms: _407  and  _408
REMARK  163  A    between atoms: _408  and  _409
REMARK  164  A    between atoms: _412  and  _414
REMARK  165  A    between atoms: _414  and  _415
REMARK  166  A    between atoms: _414  and  _417
REMARK  167  A    between atoms: _417  and  _418
REMARK  168  A    between atoms: _428  and  _430
REMARK  169  A    between atoms: _430  and  _431
REMARK  170  A    between atoms: _434  and  _436
REMARK  171  A    between atoms: _436  and  _437
REMARK  172  A    between atoms: _436  and  _439
REMARK  173  A    between atoms: _439  and  _440
REMARK  174  A    between atoms: _442  and  _444
REMARK  175  A    between atoms: _444  and  _445
REMARK  176  A    between atoms: _447  and  _449
REMARK  177  A    between atoms: _449  and  _450
REMARK  178  A    between atoms: _449  and  _452
REMARK  179  A    between atoms: _452  and  _453
REMARK  180  A    between atoms: _458  and  _460
REMARK  181  A    between atoms: _460  and  _461
REMARK  182  A    between atoms: _463  and  _465
REMARK  183  A    between atoms: _465  and  _466
REMARK  184  A    between atoms: _465  and  _468
REMARK  185  A    between atoms: _468  and  _469
REMARK  186  A    between atoms: _469  and  _471
REMARK  187  A    between atoms: _471  and  CA_629
REMARK  188  A    between atoms: _472  and  _474
REMARK  189  A    between atoms: _474  and  _475
REMARK  190  A    between atoms: _474  and  _477
REMARK  191  A    between atoms: _477  and  _478
REMARK  192  A    between atoms: _480  and  _482
REMARK  193  A    between atoms: _482  and  _483
REMARK  194  A    between atoms: _482  and  _485
REMARK  195  A    between atoms: _487  and  _489
REMARK  196  A    between atoms: _489  and  _490
REMARK  197  A    between atoms: _489  and  _492
REMARK  198  A    between atoms: _494  and  _496
REMARK  199  A    between atoms: _496  and  _497
REMARK  200  A    between atoms: _496  and  _499
REMARK  201  A    between atoms: _499  and  _500
REMARK  202  A    between atoms: _503  and  _505
REMARK  203  A    between atoms: _505  and  _506
REMARK  204  A    between atoms: _508  and  _510
REMARK  205  A    between atoms: _510  and  _511
REMARK  206  A    between atoms: _510  and  _513
REMARK  207  A    between atoms: _513  and  _514
REMARK  208  A    between atoms: _519  and  _520
REMARK  209  A    between atoms: _522  and  _524
REMARK  210  A    between atoms: _524  and  _525
REMARK  211  A    between atoms: _524  and  _527
REMARK  212  A    between atoms: _527  and  _528
REMARK  213  A    between atoms: _531  and  _533
REMARK  214  A    between atoms: _533  and  _534
REMARK  215  A    between atoms: _533  and  _536
REMARK  216  A    between atoms: _536  and  _537
REMARK  217  A    between atoms: _542  and  _544
REMARK  218  A    between atoms: _544  and  _545
REMARK  219  A    between atoms: _544  and  _547
REMARK  220  A    between atoms: _547  and  _548
REMARK  221  A    between atoms: _551  and  _553
REMARK  222  A    between atoms: _553  and  _554
REMARK  223  A    between atoms: _553  and  _556
REMARK  224  A    between atoms: _556  and  _557
REMARK  225  A    between atoms: _559  and  _561
REMARK  226  A    between atoms: _561  and  _562
REMARK  227  A    between atoms: _561  and  _564
REMARK  228  A    between atoms: _564  and  _565
REMARK  229  A    between atoms: _568  and  _570
REMARK  230  A    between atoms: _570  and  _571
REMARK  231  A    between atoms: _570  and  _573
REMARK  232  A    between atoms: _573  and  _574
REMARK  233  A    between atoms: _574  and  _575
REMARK  234  A    between atoms: _578  and  _580
REMARK  235  A    between atoms: _580  and  _581
REMARK  236  A    between atoms: _580  and  _583
REMARK  237  A    between atoms: _583  and  _584
REMARK  238  A    between atoms: _587  and  _589
REMARK  239  A    between atoms: _589  and  _590
REMARK  240  A    between atoms: _592  and  _594
REMARK  241  A    between atoms: _594  and  _595
REMARK  242  A    between atoms: _594  and  _597
REMARK  243  A    between atoms: _597  and  _598
REMARK  244  A    between atoms: _601  and  _603
REMARK  245  A    between atoms: _603  and  _604
REMARK  246  A    between atoms: _603  and  _606
REMARK  247  A    between atoms: _606  and  _607
REMARK  248  A    between atoms: _609  and  _611
REMARK  249  A    between atoms: _611  and  _612
REMARK  250  A    between atoms: _615  and  _617
REMARK  251  A    between atoms: _617  and  _618
REMARK  252  A    between atoms: _617  and  _620
REMARK  253  A    between atoms: _620  and  _621
REMARK  254  A    between atoms: _623  and  _625
REMARK  255  A    between atoms: _625  and  _626
REMARK                            x       y       z     vdW  Elec       q    Type
REMARK                         _______ _______ _______ _____ _____    ______ ____
ROOT
ATOM      1  CA  TYR A   4      24.166  19.717  -1.145  0.00  0.00    +0.153 C 
ENDROOT
BRANCH   1   4
ATOM      2  C   GLY A   3      24.409  17.739  -2.524  0.00  0.00    +0.243 C 
ATOM      3  O   GLY A   3      24.379  17.007  -1.531  0.00  0.00    -0.273 OA
ATOM      4  N   TYR A   4      24.334  19.065  -2.438  0.00  0.00    -0.297 N 
ATOM      5  H   TYR A   4      24.396  19.641  -3.301  0.00  0.00    +0.150 HD
BRANCH   2   6
ATOM      6  CA  GLY A   3      24.560  17.132  -3.907  0.00  0.00    +0.176 C 
BRANCH   6   9
ATOM      7  C   ASP A   2      23.006  18.365  -5.288  0.00  0.00    +0.241 C 
ATOM      8  O   ASP A   2      22.068  18.029  -4.572  0.00  0.00    -0.273 OA
ATOM      9  N   GLY A   3      24.254  17.992  -5.042  0.00  0.00    -0.295 N 
ATOM     10  H   GLY A   3      25.021  18.316  -5.665  0.00  0.00    +0.150 HD
BRANCH   7  11
ATOM     11  CA  ASP A   2      22.771  19.229  -6.534  0.00  0.00    +0.160 C 
BRANCH  11  13
ATOM     12  C   CYS A   1      22.368  18.018  -8.635  0.00  0.00    +0.239 C 
ATOM     13  N   ASP A   2      21.978  18.382  -7.420  0.00  0.00    -0.297 N 
ATOM     14  H   ASP A   2      21.055  18.045  -7.080  0.00  0.00    +0.150 HD
ATOM     15  O   CYS A   1      23.436  18.359  -9.129  0.00  0.00    -0.274 OA
BRANCH  12  16
ATOM     16  CA  CYS A   1      21.380  17.143  -9.398  0.00  0.00    +0.156 C 
BRANCH  16  17
ATOM     17  N   CYS A   1      20.092  17.210  -8.723  0.00  0.00    -0.237 NA
ATOM     18  H   CYS A   1      19.463  18.017  -8.910  0.00  0.00    +0.142 HD
ENDBRANCH  16  17
BRANCH  16  19
ATOM     19  CB  CYS A   1      21.244  17.636 -10.842  0.00  0.00    +0.095 C 
ATOM     20  SG  CYS A   1      20.359  16.454 -11.926  0.00  0.00    -0.080 S 
ENDBRANCH  16  19
ENDBRANCH  12  16
ENDBRANCH  11  13
BRANCH  11  21
ATOM     21  CB  ASP A   2      21.939  20.468  -6.205  0.00  0.00    +0.143 C 
BRANCH  21  22
ATOM     22  CG  ASP A   2      22.595  21.390  -5.208  0.00  0.00    +0.367 C 
ATOM     23  OD2 ASP A   2      23.332  20.908  -4.318  0.00  0.00    -0.246 OA
ATOM     24  OD1 ASP A   2      22.339  22.614  -5.311  0.00  0.00    -0.246 OA
ENDBRANCH  21  22
ENDBRANCH  11  21
ENDBRANCH   7  11
ENDBRANCH   6   9
ENDBRANCH   2   6
ENDBRANCH   1   4
BRANCH   1  25
ATOM     25  C   TYR A   4      22.694  19.658  -0.743  0.00  0.00    +0.241 C 
ATOM     26  O   TYR A   4      22.354  19.265   0.376  0.00  0.00    -0.273 OA
ATOM     27  N   THR A   5      21.818  20.050  -1.661  0.00  0.00    -0.295 N 
ATOM     28  H   THR A   5      22.156  20.386  -2.585  0.00  0.00    +0.150 HD
BRANCH  27  29
ATOM     29  CA  THR A   5      20.388  20.014  -1.385  0.00  0.00    +0.176 C 
BRANCH  29  30
ATOM     30  C   THR A   5      19.902  18.560  -1.272  0.00  0.00    +0.243 C 
ATOM     31  O   THR A   5      19.098  18.222  -0.402  0.00  0.00    -0.273 OA
ATOM     32  N   ASN A   6      20.428  17.709  -2.147  0.00  0.00    -0.298 N 
ATOM     33  H   ASN A   6      21.136  18.075  -2.815  0.00  0.00    +0.150 HD
BRANCH  32  34
ATOM     34  CA  ASN A   6      20.077  16.288  -2.233  0.00  0.00    +0.146 C 
BRANCH  34  35
ATOM     35  C   ASN A   6      20.520  15.452  -1.019  0.00  0.00    +0.227 C 
ATOM     36  O   ASN A   6      20.053  14.328  -0.822  0.00  0.00    -0.286 OA
ENDBRANCH  34  35
BRANCH  34  37
ATOM     37  CB  ASN A   6      20.707  15.730  -3.511  0.00  0.00    +0.112 C 
BRANCH  37  38
ATOM     38  CG  ASN A   6      20.082  14.425  -3.975  0.00  0.00    +0.222 C 
ATOM     39  OD1 ASN A   6      18.867  14.319  -4.146  0.00  0.00    -0.275 OA
ATOM     40  ND2 ASN A   6      20.922  13.429  -4.211  0.00  0.00    -0.329 N 
ATOM     41 HD21 ASN A   6      21.942  13.560  -4.053  0.00  0.00    +0.145 HD
ATOM     42 HD22 ASN A   6      20.562  12.515  -4.554  0.00  0.00    +0.145 HD
ENDBRANCH  37  38
ENDBRANCH  34  37
ENDBRANCH  32  34
ENDBRANCH  29  30
BRANCH  29  43
ATOM     43  CB  THR A   5      19.599  20.739  -2.504  0.00  0.00    +0.137 C 
ATOM     44  CG2 THR A   5      19.864  22.234  -2.453  0.00  0.00    +0.034 C 
BRANCH  43  45
ATOM     45  OG1 THR A   5      20.009  20.241  -3.788  0.00  0.00    -0.382 OA
ATOM     46  HG1 THR A   5      19.829  19.269  -3.836  0.00  0.00    +0.210 HD
ENDBRANCH  43  45
ENDBRANCH  29  43
ENDBRANCH  27  29
ENDBRANCH   1  25
BRANCH   1  47
ATOM     47  CB  TYR A   4      24.636  21.173  -1.215  0.00  0.00    +0.055 C 
BRANCH  47  48
ATOM     48  CG  TYR A   4      26.093  21.293  -1.606  0.00  0.00    -0.020 A 
ATOM     49  CD2 TYR A   4      27.090  21.376  -0.635  0.00  0.00    -0.001 A 
ATOM     50  CE2 TYR A   4      28.439  21.435  -0.991  0.00  0.00    +0.036 A 
ATOM     51  CZ  TYR A   4      28.799  21.406  -2.330  0.00  0.00    +0.134 A 
ATOM     52  CE1 TYR A   4      27.822  21.323  -3.313  0.00  0.00    +0.036 A 
ATOM     53  CD1 TYR A   4      26.482  21.269  -2.949  0.00  0.00    -0.001 A 
BRANCH  51  54
ATOM     54  OH  TYR A   4      30.129  21.431  -2.685  0.00  0.00    -0.506 OA
ATOM     55  HH  TYR A   4      30.545  22.261  -2.342  0.00  0.00    +0.292 HD
ENDBRANCH  51  54
ENDBRANCH  47  48
ENDBRANCH   1  47
TORSDOF 22
REMARK  Name = ../refined-set-2016/4ryd/4ryd_pocket.pdb
REMARK  255 active torsions:
REMARK  status: ('A' for Active; 'I' for Inactive)
REMARK    1  A    between atoms: _1  and  _3
REMARK    2  A    between atoms: _3  and  _4
REMARK    3  A    between atoms: _3  and  _6
REMARK    4  A    between atoms: _6  and  _7
REMARK    5  A    between atoms: _10  and  _12
REMARK    6  A    between atoms: _12  and  _13
REMARK    7  A    between atoms: _12  and  _15
REMARK    8  A    between atoms: _15  and  _16
REMARK    9  A    between atoms: _19  and  _21
REMARK   10  A    between atoms: _21  and  _22
REMARK   11  A    between atoms: _24  and  _26
REMARK   12  A    between atoms: _26  and  _27
REMARK   13  A    between atoms: _26  and  _29
REMARK   14  A    between atoms: _29  and  _30
REMARK   15  A    between atoms: _35  and  _37
REMARK   16  A    between atoms: _37  and  _38
REMARK   17  A    between atoms: _37  and  _40
REMARK   18  A    between atoms: _40  and  _41
REMARK   19  A    between atoms: _41  and  _42
REMARK   20  A    between atoms: _42  and  _43
REMARK   21  A    between atoms: _52  and  _54
REMARK   22  A    between atoms: _54  and  _55
REMARK   23  A    between atoms: _54  and  _57
REMARK   24  A    between atoms: _57  and  _58
REMARK   25  A    between atoms: _61  and  _63
REMARK   26  A    between atoms: _63  and  _64
REMARK   27  A    between atoms: _63  and  _66
REMARK   28  A    between atoms: _66  and  _67
REMARK   29  A    between atoms: _72  and  _74
REMARK   30  A    between atoms: _74  and  _75
REMARK   31  A    between atoms: _74  and  _77
REMARK   32  A    between atoms: _77  and  _78
REMARK   33  A    between atoms: _81  and  _83
REMARK   34  A    between atoms: _83  and  _84
REMARK   35  A    between atoms: _83  and  _86
REMARK   36  A    between atoms: _86  and  _87
REMARK   37  A    between atoms: _92  and  _94
REMARK   38  A    between atoms: _94  and  _95
REMARK   39  A    between atoms: _94  and  _97
REMARK   40  A    between atoms: _97  and  _98
REMARK   41  A    between atoms: _98  and  _99
REMARK   42  A    between atoms: _99  and  _100
REMARK   43  A    between atoms: _109  and  _111
REMARK   44  A    between atoms: _111  and  _112
REMARK   45  A    between atoms: _111  and  _114
REMARK   46  A    between atoms: _114  and  _115
REMARK   47  A    between atoms: _120  and  _122
REMARK   48  A    between atoms: _122  and  _123
REMARK   49  A    between atoms: _125  and  _127
REMARK   50  A    between atoms: _127  and  _128
REMARK   51  A    between atoms: _127  and  _130
REMARK   52  A    between atoms: _130  and  _131
REMARK   53  A    between atoms: _134  and  _136
REMARK   54  A    between atoms: _136  and  _137
REMARK   55  A    between atoms: _136  and  _139
REMARK   56  A    between atoms: _141  and  _143
REMARK   57  A    between atoms: _143  and  _144
REMARK   58  A    between atoms: _143  and  _146
REMARK   59  A    between atoms: _146  and  _147
REMARK   60  A    between atoms: _147  and  _148
REMARK   61  A    between atoms: _148  and  _149
REMARK   62  A    between atoms: _158  and  _160
REMARK   63  A    between atoms: _160  and  _161
REMARK   64  A    between atoms: _160  and  _163
REMARK   65  A    between atoms: _163  and  _164
REMARK   66  A    between atoms: _164  and  _165
REMARK   67  A    between atoms: _167  and  _169
REMARK   68  A    between atoms: _169  and  _170
REMARK   69  A    between atoms: _169  and  _172
REMARK   70  A    between atoms: _172  and  _173
REMARK   71  A    between atoms: _176  and  _178
REMARK   72  A    between atoms: _178  and  _179
REMARK   73  A    between atoms: _178  and  _181
REMARK   74  A    between atoms: _181  and  _182
REMARK   75  A    between atoms: _185  and  _187
REMARK   76  A    between atoms: _187  and  _188
REMARK   77  A    between atoms: _190  and  _192
REMARK   78  A    between atoms: _192  and  _193
REMARK   79  A    between atoms: _192  and  _195
REMARK   80  A    between atoms: _195  and  _196
REMARK   81  A    between atoms: _196  and  _197
REMARK   82  A    between atoms: _200  and  _202
REMARK   83  A    between atoms: _202  and  _203
REMARK   84  A    between atoms: _202  and  _205
REMARK   85  A    between atoms: _208  and  _210
REMARK   86  A    between atoms: _210  and  _211
REMARK   87  A    between atoms: _210  and  _213
REMARK   88  A    between atoms: _213  and  _214
REMARK   89  A    between atoms: _217  and  _219
REMARK   90  A    between atoms: _219  and  _220
REMARK   91  A    between atoms: _219  and  _222
REMARK   92  A    between atoms: _222  and  _223
REMARK   93  A    between atoms: _226  and  _228
REMARK   94  A    between atoms: _228  and  _229
REMARK   95  A    between atoms: _232  and  _234
REMARK   96  A    between atoms: _234  and  _235
REMARK   97  A    between atoms: _234  and  _237
REMARK   98  A    between atoms: _240  and  _242
REMARK   99  A    between atoms: _242  and  _243
REMARK  100  A    between atoms: _242  and  _245
REMARK  101  A    between atoms: _245  and  _246
REMARK  102  A    between atoms: _246  and  _247
REMARK  103  A    between atoms: _250  and  _252
REMARK  104  A    between atoms: _252  and  _253
REMARK  105  A    between atoms: _256  and  _258
REMARK  106  A    between atoms: _258  and  _259
REMARK  107  A    between atoms: _262  and  _264
REMARK  108  A    between atoms: _264  and  _265
REMARK  109  A    between atoms: _264  and  _267
REMARK  110  A    between atoms: _267  and  _268
REMARK  111  A    between atoms: _270  and  _272
REMARK  112  A    between atoms: _272  and  _273
REMARK  113  A    between atoms: _272  and  _275
REMARK  114  A    between atoms: _275  and  _276
REMARK  115  A    between atoms: _286  and  _288
REMARK  116  A    between atoms: _288  and  _289
REMARK  117  A    between atoms: _292  and  _293
REMARK  118  A    between atoms: _298  and  _300
REMARK  119  A    between atoms: _300  and  _301
REMARK  120  A    between atoms: _300  and  _303
REMARK  121  A    between atoms: _303  and  _304
REMARK  122  A    between atoms: _304  and  _305
REMARK  123  A    between atoms: _308  and  _310
REMARK  124  A    between atoms: _310  and  _311
REMARK  125  A    between atoms: _310  and  _313
REMARK  126  A    between atoms: _313  and  _314
REMARK  127  A    between atoms: _317  and  _319
REMARK  128  A    between atoms: _319  and  _320
REMARK  129  A    between atoms: _319  and  _322
REMARK  130  A    between atoms: _322  and  _323
REMARK  131  A    between atoms: _326  and  _328
REMARK  132  A    between atoms: _328  and  _329
REMARK  133  A    between atoms: _328  and  _331
REMARK  134  A    between atoms: _331  and  _332
REMARK  135  A    between atoms: _335  and  _337
REMARK  136  A    between atoms: _337  and  _338
REMARK  137  A    between atoms: _337  and  _340
REMARK  138  A    between atoms: _343  and  _345
REMARK  139  A    between atoms: _345  and  _346
REMARK  140  A    between atoms: _345  and  _348
REMARK  141  A    between atoms: _348  and  _349
REMARK  142  A    between atoms: _352  and  _354
REMARK  143  A    between atoms: _354  and  _355
REMARK  144  A    between atoms: _358  and  _359
REMARK  145  A    between atoms: _364  and  _366
REMARK  146  A    between atoms: _366  and  _367
REMARK  147  A    between atoms: _370  and  _372
REMARK  148  A    between atoms: _372  and  _373
REMARK  149  A    between atoms: _372  and  _375
REMARK  150  A    between atoms: _375  and  _376
REMARK  151  A    between atoms: _376  and  _377
REMARK  152  A    between atoms: _377  and  _378
REMARK  153  A    between atoms: _387  and  _389
REMARK  154  A    between atoms: _389  and  _390
REMARK  155  A    between atoms: _389  and  _392
REMARK  156  A    between atoms: _392  and  _393
REMARK  157  A    between atoms: _396  and  _398
REMARK  158  A    between atoms: _398  and  _399
REMARK  159  A    between atoms: _402  and  _404
REMARK  160  A    between atoms: _404  and  _405
REMARK  161  A    between atoms: _404  and  _407
REMARK  162  A    between atoms: _407  and  _408
REMARK  163  A    between atoms: _408  and  _409
REMARK  164  A    between atoms: _412  and  _414
REMARK  165  A    between atoms: _414  and  _415
REMARK  166  A    between atoms: _414  and  _417
REMARK  167  A    between atoms: _417  and  _418
REMARK  168  A    between atoms: _428  and  _430
REMARK  169  A    between atoms: _430  and  _431
REMARK  170  A    between atoms: _434  and  _436
REMARK  171  A    between atoms: _436  and  _437
REMARK  172  A    between atoms: _436  and  _439
REMARK  173  A    between atoms: _439  and  _440
REMARK  174  A    between atoms: _442  and  _444
REMARK  175  A    between atoms: _444  and  _445
REMARK  176  A    between atoms: _447  and  _449
REMARK  177  A    between atoms: _449  and  _450
REMARK  178  A    between atoms: _449  and  _452
REMARK  179  A    between atoms: _452  and  _453
REMARK  180  A    between atoms: _458  and  _460
REMARK  181  A    between atoms: _460  and  _461
REMARK  182  A    between atoms: _463  and  _465
REMARK  183  A    between atoms: _465  and  _466
REMARK  184  A    between atoms: _465  and  _468
REMARK  185  A    between atoms: _468  and  _469
REMARK  186  A    between atoms: _469  and  _471
REMARK  187  A    between atoms: _471  and  CA_629
REMARK  188  A    between atoms: _472  and  _474
REMARK  189  A    between atoms: _474  and  _475
REMARK  190  A    between atoms: _474  and  _477
REMARK  191  A    between atoms: _477  and  _478
REMARK  192  A    between atoms: _480  and  _482
REMARK  193  A    between atoms: _482  and  _483
REMARK  194  A    between atoms: _482  and  _485
REMARK  195  A    between atoms: _487  and  _489
REMARK  196  A    between atoms: _489  and  _490
REMARK  197  A    between atoms: _489  and  _492
REMARK  198  A    between atoms: _494  and  _496
REMARK  199  A    between atoms: _496  and  _497
REMARK  200  A    between atoms: _496  and  _499
REMARK  201  A    between atoms: _499  and  _500
REMARK  202  A    between atoms: _503  and  _505
REMARK  203  A    between atoms: _505  and  _506
REMARK  204  A    between atoms: _508  and  _510
REMARK  205  A    between atoms: _510  and  _511
REMARK  206  A    between atoms: _510  and  _513
REMARK  207  A    between atoms: _513  and  _514
REMARK  208  A    between atoms: _519  and  _520
REMARK  209  A    between atoms: _522  and  _524
REMARK  210  A    between atoms: _524  and  _525
REMARK  211  A    between atoms: _524  and  _527
REMARK  212  A    between atoms: _527  and  _528
REMARK  213  A    between atoms: _531  and  _533
REMARK  214  A    between atoms: _533  and  _534
REMARK  215  A    between atoms: _533  and  _536
REMARK  216  A    between atoms: _536  and  _537
REMARK  217  A    between atoms: _542  and  _544
REMARK  218  A    between atoms: _544  and  _545
REMARK  219  A    between atoms: _544  and  _547
REMARK  220  A    between atoms: _547  and  _548
REMARK  221  A    between atoms: _551  and  _553
REMARK  222  A    between atoms: _553  and  _554
REMARK  223  A    between atoms: _553  and  _556
REMARK  224  A    between atoms: _556  and  _557
REMARK  225  A    between atoms: _559  and  _561
REMARK  226  A    between atoms: _561  and  _562
REMARK  227  A    between atoms: _561  and  _564
REMARK  228  A    between atoms: _564  and  _565
REMARK  229  A    between atoms: _568  and  _570
REMARK  230  A    between atoms: _570  and  _571
REMARK  231  A    between atoms: _570  and  _573
REMARK  232  A    between atoms: _573  and  _574
REMARK  233  A    between atoms: _574  and  _575
REMARK  234  A    between atoms: _578  and  _580
REMARK  235  A    between atoms: _580  and  _581
REMARK  236  A    between atoms: _580  and  _583
REMARK  237  A    between atoms: _583  and  _584
REMARK  238  A    between atoms: _587  and  _589
REMARK  239  A    between atoms: _589  and  _590
REMARK  240  A    between atoms: _592  and  _594
REMARK  241  A    between atoms: _594  and  _595
REMARK  242  A    between atoms: _594  and  _597
REMARK  243  A    between atoms: _597  and  _598
REMARK  244  A    between atoms: _601  and  _603
REMARK  245  A    between atoms: _603  and  _604
REMARK  246  A    between atoms: _603  and  _606
REMARK  247  A    between atoms: _606  and  _607
REMARK  248  A    between atoms: _609  and  _611
REMARK  249  A    between atoms: _611  and  _612
REMARK  250  A    between atoms: _615  and  _617
REMARK  251  A    between atoms: _617  and  _618
REMARK  252  A    between atoms: _617  and  _620
REMARK  253  A    between atoms: _620  and  _621
REMARK  254  A    between atoms: _623  and  _625
REMARK  255  A    between atoms: _625  and  _626
REMARK                            x       y       z     vdW  Elec       q    Type
REMARK                         _______ _______ _______ _____ _____    ______ ____
ROOT
ATOM      1  CA  THR A   1      20.631  19.225   4.899  0.00  0.00    +0.160 C 
ENDROOT
BRANCH   1   2
ATOM      2  N   THR A   1      21.076  17.843   5.011  0.00  0.00    -0.237 NA
ATOM      3  H   THR A   1      20.968  17.196   4.204  0.00  0.00    +0.142 HD
ENDBRANCH   1   2
BRANCH   1   4
ATOM      4  C   THR A   1      19.108  19.331   4.754  0.00  0.00    +0.227 C 
ATOM      5  O   THR A   1      18.462  18.441   4.195  0.00  0.00    -0.287 OA
ENDBRANCH   1   4
BRANCH   1   6
ATOM      6  CB  THR A   1      21.243  19.920   3.656  0.00  0.00    +0.134 C 
ATOM      7  CG2 THR A   1      22.756  19.778   3.630  0.00  0.00    +0.034 C 
BRANCH   6   8
ATOM      8  OG1 THR A   1      20.700  19.324   2.473  0.00  0.00    -0.383 OA
ATOM      9  HG1 THR A   1      21.088  19.764   1.675  0.00  0.00    +0.210 HD
ENDBRANCH   6   8
ENDBRANCH   1   6
TORSDOF 4
REMARK  Name = ../refined-set-2016/4ryd/4ryd_pocket.pdb
REMARK  255 active torsions:
REMARK  status: ('A' for Active; 'I' for Inactive)
REMARK    1  A    between atoms: _1  and  _3
REMARK    2  A    between atoms: _3  and  _4
REMARK    3  A    between atoms: _3  and  _6
REMARK    4  A    between atoms: _6  and  _7
REMARK    5  A    between atoms: _10  and  _12
REMARK    6  A    between atoms: _12  and  _13
REMARK    7  A    between atoms: _12  and  _15
REMARK    8  A    between atoms: _15  and  _16
REMARK    9  A    between atoms: _19  and  _21
REMARK   10  A    between atoms: _21  and  _22
REMARK   11  A    between atoms: _24  and  _26
REMARK   12  A    between atoms: _26  and  _27
REMARK   13  A    between atoms: _26  and  _29
REMARK   14  A    between atoms: _29  and  _30
REMARK   15  A    between atoms: _35  and  _37
REMARK   16  A    between atoms: _37  and  _38
REMARK   17  A    between atoms: _37  and  _40
REMARK   18  A    between atoms: _40  and  _41
REMARK   19  A    between atoms: _41  and  _42
REMARK   20  A    between atoms: _42  and  _43
REMARK   21  A    between atoms: _52  and  _54
REMARK   22  A    between atoms: _54  and  _55
REMARK   23  A    between atoms: _54  and  _57
REMARK   24  A    between atoms: _57  and  _58
REMARK   25  A    between atoms: _61  and  _63
REMARK   26  A    between atoms: _63  and  _64
REMARK   27  A    between atoms: _63  and  _66
REMARK   28  A    between atoms: _66  and  _67
REMARK   29  A    between atoms: _72  and  _74
REMARK   30  A    between atoms: _74  and  _75
REMARK   31  A    between atoms: _74  and  _77
REMARK   32  A    between atoms: _77  and  _78
REMARK   33  A    between atoms: _81  and  _83
REMARK   34  A    between atoms: _83  and  _84
REMARK   35  A    between atoms: _83  and  _86
REMARK   36  A    between atoms: _86  and  _87
REMARK   37  A    between atoms: _92  and  _94
REMARK   38  A    between atoms: _94  and  _95
REMARK   39  A    between atoms: _94  and  _97
REMARK   40  A    between atoms: _97  and  _98
REMARK   41  A    between atoms: _98  and  _99
REMARK   42  A    between atoms: _99  and  _100
REMARK   43  A    between atoms: _109  and  _111
REMARK   44  A    between atoms: _111  and  _112
REMARK   45  A    between atoms: _111  and  _114
REMARK   46  A    between atoms: _114  and  _115
REMARK   47  A    between atoms: _120  and  _122
REMARK   48  A    between atoms: _122  and  _123
REMARK   49  A    between atoms: _125  and  _127
REMARK   50  A    between atoms: _127  and  _128
REMARK   51  A    between atoms: _127  and  _130
REMARK   52  A    between atoms: _130  and  _131
REMARK   53  A    between atoms: _134  and  _136
REMARK   54  A    between atoms: _136  and  _137
REMARK   55  A    between atoms: _136  and  _139
REMARK   56  A    between atoms: _141  and  _143
REMARK   57  A    between atoms: _143  and  _144
REMARK   58  A    between atoms: _143  and  _146
REMARK   59  A    between atoms: _146  and  _147
REMARK   60  A    between atoms: _147  and  _148
REMARK   61  A    between atoms: _148  and  _149
REMARK   62  A    between atoms: _158  and  _160
REMARK   63  A    between atoms: _160  and  _161
REMARK   64  A    between atoms: _160  and  _163
REMARK   65  A    between atoms: _163  and  _164
REMARK   66  A    between atoms: _164  and  _165
REMARK   67  A    between atoms: _167  and  _169
REMARK   68  A    between atoms: _169  and  _170
REMARK   69  A    between atoms: _169  and  _172
REMARK   70  A    between atoms: _172  and  _173
REMARK   71  A    between atoms: _176  and  _178
REMARK   72  A    between atoms: _178  and  _179
REMARK   73  A    between atoms: _178  and  _181
REMARK   74  A    between atoms: _181  and  _182
REMARK   75  A    between atoms: _185  and  _187
REMARK   76  A    between atoms: _187  and  _188
REMARK   77  A    between atoms: _190  and  _192
REMARK   78  A    between atoms: _192  and  _193
REMARK   79  A    between atoms: _192  and  _195
REMARK   80  A    between atoms: _195  and  _196
REMARK   81  A    between atoms: _196  and  _197
REMARK   82  A    between atoms: _200  and  _202
REMARK   83  A    between atoms: _202  and  _203
REMARK   84  A    between atoms: _202  and  _205
REMARK   85  A    between atoms: _208  and  _210
REMARK   86  A    between atoms: _210  and  _211
REMARK   87  A    between atoms: _210  and  _213
REMARK   88  A    between atoms: _213  and  _214
REMARK   89  A    between atoms: _217  and  _219
REMARK   90  A    between atoms: _219  and  _220
REMARK   91  A    between atoms: _219  and  _222
REMARK   92  A    between atoms: _222  and  _223
REMARK   93  A    between atoms: _226  and  _228
REMARK   94  A    between atoms: _228  and  _229
REMARK   95  A    between atoms: _232  and  _234
REMARK   96  A    between atoms: _234  and  _235
REMARK   97  A    between atoms: _234  and  _237
REMARK   98  A    between atoms: _240  and  _242
REMARK   99  A    between atoms: _242  and  _243
REMARK  100  A    between atoms: _242  and  _245
REMARK  101  A    between atoms: _245  and  _246
REMARK  102  A    between atoms: _246  and  _247
REMARK  103  A    between atoms: _250  and  _252
REMARK  104  A    between atoms: _252  and  _253
REMARK  105  A    between atoms: _256  and  _258
REMARK  106  A    between atoms: _258  and  _259
REMARK  107  A    between atoms: _262  and  _264
REMARK  108  A    between atoms: _264  and  _265
REMARK  109  A    between atoms: _264  and  _267
REMARK  110  A    between atoms: _267  and  _268
REMARK  111  A    between atoms: _270  and  _272
REMARK  112  A    between atoms: _272  and  _273
REMARK  113  A    between atoms: _272  and  _275
REMARK  114  A    between atoms: _275  and  _276
REMARK  115  A    between atoms: _286  and  _288
REMARK  116  A    between atoms: _288  and  _289
REMARK  117  A    between atoms: _292  and  _293
REMARK  118  A    between atoms: _298  and  _300
REMARK  119  A    between atoms: _300  and  _301
REMARK  120  A    between atoms: _300  and  _303
REMARK  121  A    between atoms: _303  and  _304
REMARK  122  A    between atoms: _304  and  _305
REMARK  123  A    between atoms: _308  and  _310
REMARK  124  A    between atoms: _310  and  _311
REMARK  125  A    between atoms: _310  and  _313
REMARK  126  A    between atoms: _313  and  _314
REMARK  127  A    between atoms: _317  and  _319
REMARK  128  A    between atoms: _319  and  _320
REMARK  129  A    between atoms: _319  and  _322
REMARK  130  A    between atoms: _322  and  _323
REMARK  131  A    between atoms: _326  and  _328
REMARK  132  A    between atoms: _328  and  _329
REMARK  133  A    between atoms: _328  and  _331
REMARK  134  A    between atoms: _331  and  _332
REMARK  135  A    between atoms: _335  and  _337
REMARK  136  A    between atoms: _337  and  _338
REMARK  137  A    between atoms: _337  and  _340
REMARK  138  A    between atoms: _343  and  _345
REMARK  139  A    between atoms: _345  and  _346
REMARK  140  A    between atoms: _345  and  _348
REMARK  141  A    between atoms: _348  and  _349
REMARK  142  A    between atoms: _352  and  _354
REMARK  143  A    between atoms: _354  and  _355
REMARK  144  A    between atoms: _358  and  _359
REMARK  145  A    between atoms: _364  and  _366
REMARK  146  A    between atoms: _366  and  _367
REMARK  147  A    between atoms: _370  and  _372
REMARK  148  A    between atoms: _372  and  _373
REMARK  149  A    between atoms: _372  and  _375
REMARK  150  A    between atoms: _375  and  _376
REMARK  151  A    between atoms: _376  and  _377
REMARK  152  A    between atoms: _377  and  _378
REMARK  153  A    between atoms: _387  and  _389
REMARK  154  A    between atoms: _389  and  _390
REMARK  155  A    between atoms: _389  and  _392
REMARK  156  A    between atoms: _392  and  _393
REMARK  157  A    between atoms: _396  and  _398
REMARK  158  A    between atoms: _398  and  _399
REMARK  159  A    between atoms: _402  and  _404
REMARK  160  A    between atoms: _404  and  _405
REMARK  161  A    between atoms: _404  and  _407
REMARK  162  A    between atoms: _407  and  _408
REMARK  163  A    between atoms: _408  and  _409
REMARK  164  A    between atoms: _412  and  _414
REMARK  165  A    between atoms: _414  and  _415
REMARK  166  A    between atoms: _414  and  _417
REMARK  167  A    between atoms: _417  and  _418
REMARK  168  A    between atoms: _428  and  _430
REMARK  169  A    between atoms: _430  and  _431
REMARK  170  A    between atoms: _434  and  _436
REMARK  171  A    between atoms: _436  and  _437
REMARK  172  A    between atoms: _436  and  _439
REMARK  173  A    between atoms: _439  and  _440
REMARK  174  A    between atoms: _442  and  _444
REMARK  175  A    between atoms: _444  and  _445
REMARK  176  A    between atoms: _447  and  _449
REMARK  177  A    between atoms: _449  and  _450
REMARK  178  A    between atoms: _449  and  _452
REMARK  179  A    between atoms: _452  and  _453
REMARK  180  A    between atoms: _458  and  _460
REMARK  181  A    between atoms: _460  and  _461
REMARK  182  A    between atoms: _463  and  _465
REMARK  183  A    between atoms: _465  and  _466
REMARK  184  A    between atoms: _465  and  _468
REMARK  185  A    between atoms: _468  and  _469
REMARK  186  A    between atoms: _469  and  _471
REMARK  187  A    between atoms: _471  and  CA_629
REMARK  188  A    between atoms: _472  and  _474
REMARK  189  A    between atoms: _474  and  _475
REMARK  190  A    between atoms: _474  and  _477
REMARK  191  A    between atoms: _477  and  _478
REMARK  192  A    between atoms: _480  and  _482
REMARK  193  A    between atoms: _482  and  _483
REMARK  194  A    between atoms: _482  and  _485
REMARK  195  A    between atoms: _487  and  _489
REMARK  196  A    between atoms: _489  and  _490
REMARK  197  A    between atoms: _489  and  _492
REMARK  198  A    between atoms: _494  and  _496
REMARK  199  A    between atoms: _496  and  _497
REMARK  200  A    between atoms: _496  and  _499
REMARK  201  A    between atoms: _499  and  _500
REMARK  202  A    between atoms: _503  and  _505
REMARK  203  A    between atoms: _505  and  _506
REMARK  204  A    between atoms: _508  and  _510
REMARK  205  A    between atoms: _510  and  _511
REMARK  206  A    between atoms: _510  and  _513
REMARK  207  A    between atoms: _513  and  _514
REMARK  208  A    between atoms: _519  and  _520
REMARK  209  A    between atoms: _522  and  _524
REMARK  210  A    between atoms: _524  and  _525
REMARK  211  A    between atoms: _524  and  _527
REMARK  212  A    between atoms: _527  and  _528
REMARK  213  A    between atoms: _531  and  _533
REMARK  214  A    between atoms: _533  and  _534
REMARK  215  A    between atoms: _533  and  _536
REMARK  216  A    between atoms: _536  and  _537
REMARK  217  A    between atoms: _542  and  _544
REMARK  218  A    between atoms: _544  and  _545
REMARK  219  A    between atoms: _544  and  _547
REMARK  220  A    between atoms: _547  and  _548
REMARK  221  A    between atoms: _551  and  _553
REMARK  222  A    between atoms: _553  and  _554
REMARK  223  A    between atoms: _553  and  _556
REMARK  224  A    between atoms: _556  and  _557
REMARK  225  A    between atoms: _559  and  _561
REMARK  226  A    between atoms: _561  and  _562
REMARK  227  A    between atoms: _561  and  _564
REMARK  228  A    between atoms: _564  and  _565
REMARK  229  A    between atoms: _568  and  _570
REMARK  230  A    between atoms: _570  and  _571
REMARK  231  A    between atoms: _570  and  _573
REMARK  232  A    between atoms: _573  and  _574
REMARK  233  A    between atoms: _574  and  _575
REMARK  234  A    between atoms: _578  and  _580
REMARK  235  A    between atoms: _580  and  _581
REMARK  236  A    between atoms: _580  and  _583
REMARK  237  A    between atoms: _583  and  _584
REMARK  238  A    between atoms: _587  and  _589
REMARK  239  A    between atoms: _589  and  _590
REMARK  240  A    between atoms: _592  and  _594
REMARK  241  A    between atoms: _594  and  _595
REMARK  242  A    between atoms: _594  and  _597
REMARK  243  A    between atoms: _597  and  _598
REMARK  244  A    between atoms: _601  and  _603
REMARK  245  A    between atoms: _603  and  _604
REMARK  246  A    between atoms: _603  and  _606
REMARK  247  A    between atoms: _606  and  _607
REMARK  248  A    between atoms: _609  and  _611
REMARK  249  A    between atoms: _611  and  _612
REMARK  250  A    between atoms: _615  and  _617
REMARK  251  A    between atoms: _617  and  _618
REMARK  252  A    between atoms: _617  and  _620
REMARK  253  A    between atoms: _620  and  _621
REMARK  254  A    between atoms: _623  and  _625
REMARK  255  A    between atoms: _625  and  _626
REMARK                            x       y       z     vdW  Elec       q    Type
REMARK                         _______ _______ _______ _____ _____    ______ ____
ROOT
ATOM      1  C   SER A   1      15.264  22.570   1.546  0.00  0.00    +0.241 C 
ATOM      2  O   SER A   1      14.200  21.966   1.695  0.00  0.00    -0.274 OA
ATOM      3  N   ILE A   2      15.339  23.884   1.364  0.00  0.00    -0.298 N 
ATOM      4  H   ILE A   2      16.274  24.305   1.189  0.00  0.00    +0.150 HD
ENDROOT
BRANCH   1   5
ATOM      5  CA  SER A   1      16.595  21.820   1.540  0.00  0.00    +0.174 C 
BRANCH   5   6
ATOM      6  N   SER A   1      16.667  21.022   2.744  0.00  0.00    -0.236 NA
ATOM      7  H   SER A   1      16.428  20.011   2.704  0.00  0.00    +0.142 HD
ENDBRANCH   5   6
BRANCH   5   8
ATOM      8  CB  SER A   1      16.714  20.919   0.312  0.00  0.00    +0.163 C 
BRANCH   8   9
ATOM      9  OG  SER A   1      16.852  21.687  -0.881  0.00  0.00    -0.380 OA
ATOM     10  H   SER A   1      16.927  21.078  -1.658  0.00  0.00    +0.211 HD
ENDBRANCH   8   9
ENDBRANCH   5   8
ENDBRANCH   1   5
BRANCH   3  11
ATOM     11  CA  ILE A   2      14.173  24.769   1.397  0.00  0.00    +0.137 C 
BRANCH  11  12
ATOM     12  CB  ILE A   2      14.389  25.873   2.462  0.00  0.00    +0.026 C 
ATOM     13  CG2 ILE A   2      13.143  26.750   2.573  0.00  0.00    +0.002 C 
BRANCH  12  14
ATOM     14  CG1 ILE A   2      14.770  25.232   3.806  0.00  0.00    +0.002 C 
ATOM     15  CD1 ILE A   2      13.670  24.395   4.443  0.00  0.00    +0.000 C 
ENDBRANCH  12  14
ENDBRANCH  11  12
BRANCH  11  16
ATOM     16  C   ILE A   2      13.862  25.472   0.073  0.00  0.00    +0.227 C 
ATOM     17  O   ILE A   2      14.728  26.134  -0.506  0.00  0.00    -0.286 OA
ENDBRANCH  11  16
ENDBRANCH   3  11
TORSDOF 8
REMARK  Name = ../refined-set-2016/4ryd/4ryd_pocket.pdb
REMARK  255 active torsions:
REMARK  status: ('A' for Active; 'I' for Inactive)
REMARK    1  A    between atoms: _1  and  _3
REMARK    2  A    between atoms: _3  and  _4
REMARK    3  A    between atoms: _3  and  _6
REMARK    4  A    between atoms: _6  and  _7
REMARK    5  A    between atoms: _10  and  _12
REMARK    6  A    between atoms: _12  and  _13
REMARK    7  A    between atoms: _12  and  _15
REMARK    8  A    between atoms: _15  and  _16
REMARK    9  A    between atoms: _19  and  _21
REMARK   10  A    between atoms: _21  and  _22
REMARK   11  A    between atoms: _24  and  _26
REMARK   12  A    between atoms: _26  and  _27
REMARK   13  A    between atoms: _26  and  _29
REMARK   14  A    between atoms: _29  and  _30
REMARK   15  A    between atoms: _35  and  _37
REMARK   16  A    between atoms: _37  and  _38
REMARK   17  A    between atoms: _37  and  _40
REMARK   18  A    between atoms: _40  and  _41
REMARK   19  A    between atoms: _41  and  _42
REMARK   20  A    between atoms: _42  and  _43
REMARK   21  A    between atoms: _52  and  _54
REMARK   22  A    between atoms: _54  and  _55
REMARK   23  A    between atoms: _54  and  _57
REMARK   24  A    between atoms: _57  and  _58
REMARK   25  A    between atoms: _61  and  _63
REMARK   26  A    between atoms: _63  and  _64
REMARK   27  A    between atoms: _63  and  _66
REMARK   28  A    between atoms: _66  and  _67
REMARK   29  A    between atoms: _72  and  _74
REMARK   30  A    between atoms: _74  and  _75
REMARK   31  A    between atoms: _74  and  _77
REMARK   32  A    between atoms: _77  and  _78
REMARK   33  A    between atoms: _81  and  _83
REMARK   34  A    between atoms: _83  and  _84
REMARK   35  A    between atoms: _83  and  _86
REMARK   36  A    between atoms: _86  and  _87
REMARK   37  A    between atoms: _92  and  _94
REMARK   38  A    between atoms: _94  and  _95
REMARK   39  A    between atoms: _94  and  _97
REMARK   40  A    between atoms: _97  and  _98
REMARK   41  A    between atoms: _98  and  _99
REMARK   42  A    between atoms: _99  and  _100
REMARK   43  A    between atoms: _109  and  _111
REMARK   44  A    between atoms: _111  and  _112
REMARK   45  A    between atoms: _111  and  _114
REMARK   46  A    between atoms: _114  and  _115
REMARK   47  A    between atoms: _120  and  _122
REMARK   48  A    between atoms: _122  and  _123
REMARK   49  A    between atoms: _125  and  _127
REMARK   50  A    between atoms: _127  and  _128
REMARK   51  A    between atoms: _127  and  _130
REMARK   52  A    between atoms: _130  and  _131
REMARK   53  A    between atoms: _134  and  _136
REMARK   54  A    between atoms: _136  and  _137
REMARK   55  A    between atoms: _136  and  _139
REMARK   56  A    between atoms: _141  and  _143
REMARK   57  A    between atoms: _143  and  _144
REMARK   58  A    between atoms: _143  and  _146
REMARK   59  A    between atoms: _146  and  _147
REMARK   60  A    between atoms: _147  and  _148
REMARK   61  A    between atoms: _148  and  _149
REMARK   62  A    between atoms: _158  and  _160
REMARK   63  A    between atoms: _160  and  _161
REMARK   64  A    between atoms: _160  and  _163
REMARK   65  A    between atoms: _163  and  _164
REMARK   66  A    between atoms: _164  and  _165
REMARK   67  A    between atoms: _167  and  _169
REMARK   68  A    between atoms: _169  and  _170
REMARK   69  A    between atoms: _169  and  _172
REMARK   70  A    between atoms: _172  and  _173
REMARK   71  A    between atoms: _176  and  _178
REMARK   72  A    between atoms: _178  and  _179
REMARK   73  A    between atoms: _178  and  _181
REMARK   74  A    between atoms: _181  and  _182
REMARK   75  A    between atoms: _185  and  _187
REMARK   76  A    between atoms: _187  and  _188
REMARK   77  A    between atoms: _190  and  _192
REMARK   78  A    between atoms: _192  and  _193
REMARK   79  A    between atoms: _192  and  _195
REMARK   80  A    between atoms: _195  and  _196
REMARK   81  A    between atoms: _196  and  _197
REMARK   82  A    between atoms: _200  and  _202
REMARK   83  A    between atoms: _202  and  _203
REMARK   84  A    between atoms: _202  and  _205
REMARK   85  A    between atoms: _208  and  _210
REMARK   86  A    between atoms: _210  and  _211
REMARK   87  A    between atoms: _210  and  _213
REMARK   88  A    between atoms: _213  and  _214
REMARK   89  A    between atoms: _217  and  _219
REMARK   90  A    between atoms: _219  and  _220
REMARK   91  A    between atoms: _219  and  _222
REMARK   92  A    between atoms: _222  and  _223
REMARK   93  A    between atoms: _226  and  _228
REMARK   94  A    between atoms: _228  and  _229
REMARK   95  A    between atoms: _232  and  _234
REMARK   96  A    between atoms: _234  and  _235
REMARK   97  A    between atoms: _234  and  _237
REMARK   98  A    between atoms: _240  and  _242
REMARK   99  A    between atoms: _242  and  _243
REMARK  100  A    between atoms: _242  and  _245
REMARK  101  A    between atoms: _245  and  _246
REMARK  102  A    between atoms: _246  and  _247
REMARK  103  A    between atoms: _250  and  _252
REMARK  104  A    between atoms: _252  and  _253
REMARK  105  A    between atoms: _256  and  _258
REMARK  106  A    between atoms: _258  and  _259
REMARK  107  A    between atoms: _262  and  _264
REMARK  108  A    between atoms: _264  and  _265
REMARK  109  A    between atoms: _264  and  _267
REMARK  110  A    between atoms: _267  and  _268
REMARK  111  A    between atoms: _270  and  _272
REMARK  112  A    between atoms: _272  and  _273
REMARK  113  A    between atoms: _272  and  _275
REMARK  114  A    between atoms: _275  and  _276
REMARK  115  A    between atoms: _286  and  _288
REMARK  116  A    between atoms: _288  and  _289
REMARK  117  A    between atoms: _292  and  _293
REMARK  118  A    between atoms: _298  and  _300
REMARK  119  A    between atoms: _300  and  _301
REMARK  120  A    between atoms: _300  and  _303
REMARK  121  A    between atoms: _303  and  _304
REMARK  122  A    between atoms: _304  and  _305
REMARK  123  A    between atoms: _308  and  _310
REMARK  124  A    between atoms: _310  and  _311
REMARK  125  A    between atoms: _310  and  _313
REMARK  126  A    between atoms: _313  and  _314
REMARK  127  A    between atoms: _317  and  _319
REMARK  128  A    between atoms: _319  and  _320
REMARK  129  A    between atoms: _319  and  _322
REMARK  130  A    between atoms: _322  and  _323
REMARK  131  A    between atoms: _326  and  _328
REMARK  132  A    between atoms: _328  and  _329
REMARK  133  A    between atoms: _328  and  _331
REMARK  134  A    between atoms: _331  and  _332
REMARK  135  A    between atoms: _335  and  _337
REMARK  136  A    between atoms: _337  and  _338
REMARK  137  A    between atoms: _337  and  _340
REMARK  138  A    between atoms: _343  and  _345
REMARK  139  A    between atoms: _345  and  _346
REMARK  140  A    between atoms: _345  and  _348
REMARK  141  A    between atoms: _348  and  _349
REMARK  142  A    between atoms: _352  and  _354
REMARK  143  A    between atoms: _354  and  _355
REMARK  144  A    between atoms: _358  and  _359
REMARK  145  A    between atoms: _364  and  _366
REMARK  146  A    between atoms: _366  and  _367
REMARK  147  A    between atoms: _370  and  _372
REMARK  148  A    between atoms: _372  and  _373
REMARK  149  A    between atoms: _372  and  _375
REMARK  150  A    between atoms: _375  and  _376
REMARK  151  A    between atoms: _376  and  _377
REMARK  152  A    between atoms: _377  and  _378
REMARK  153  A    between atoms: _387  and  _389
REMARK  154  A    between atoms: _389  and  _390
REMARK  155  A    between atoms: _389  and  _392
REMARK  156  A    between atoms: _392  and  _393
REMARK  157  A    between atoms: _396  and  _398
REMARK  158  A    between atoms: _398  and  _399
REMARK  159  A    between atoms: _402  and  _404
REMARK  160  A    between atoms: _404  and  _405
REMARK  161  A    between atoms: _404  and  _407
REMARK  162  A    between atoms: _407  and  _408
REMARK  163  A    between atoms: _408  and  _409
REMARK  164  A    between atoms: _412  and  _414
REMARK  165  A    between atoms: _414  and  _415
REMARK  166  A    between atoms: _414  and  _417
REMARK  167  A    between atoms: _417  and  _418
REMARK  168  A    between atoms: _428  and  _430
REMARK  169  A    between atoms: _430  and  _431
REMARK  170  A    between atoms: _434  and  _436
REMARK  171  A    between atoms: _436  and  _437
REMARK  172  A    between atoms: _436  and  _439
REMARK  173  A    between atoms: _439  and  _440
REMARK  174  A    between atoms: _442  and  _444
REMARK  175  A    between atoms: _444  and  _445
REMARK  176  A    between atoms: _447  and  _449
REMARK  177  A    between atoms: _449  and  _450
REMARK  178  A    between atoms: _449  and  _452
REMARK  179  A    between atoms: _452  and  _453
REMARK  180  A    between atoms: _458  and  _460
REMARK  181  A    between atoms: _460  and  _461
REMARK  182  A    between atoms: _463  and  _465
REMARK  183  A    between atoms: _465  and  _466
REMARK  184  A    between atoms: _465  and  _468
REMARK  185  A    between atoms: _468  and  _469
REMARK  186  A    between atoms: _469  and  _471
REMARK  187  A    between atoms: _471  and  CA_629
REMARK  188  A    between atoms: _472  and  _474
REMARK  189  A    between atoms: _474  and  _475
REMARK  190  A    between atoms: _474  and  _477
REMARK  191  A    between atoms: _477  and  _478
REMARK  192  A    between atoms: _480  and  _482
REMARK  193  A    between atoms: _482  and  _483
REMARK  194  A    between atoms: _482  and  _485
REMARK  195  A    between atoms: _487  and  _489
REMARK  196  A    between atoms: _489  and  _490
REMARK  197  A    between atoms: _489  and  _492
REMARK  198  A    between atoms: _494  and  _496
REMARK  199  A    between atoms: _496  and  _497
REMARK  200  A    between atoms: _496  and  _499
REMARK  201  A    between atoms: _499  and  _500
REMARK  202  A    between atoms: _503  and  _505
REMARK  203  A    between atoms: _505  and  _506
REMARK  204  A    between atoms: _508  and  _510
REMARK  205  A    between atoms: _510  and  _511
REMARK  206  A    between atoms: _510  and  _513
REMARK  207  A    between atoms: _513  and  _514
REMARK  208  A    between atoms: _519  and  _520
REMARK  209  A    between atoms: _522  and  _524
REMARK  210  A    between atoms: _524  and  _525
REMARK  211  A    between atoms: _524  and  _527
REMARK  212  A    between atoms: _527  and  _528
REMARK  213  A    between atoms: _531  and  _533
REMARK  214  A    between atoms: _533  and  _534
REMARK  215  A    between atoms: _533  and  _536
REMARK  216  A    between atoms: _536  and  _537
REMARK  217  A    between atoms: _542  and  _544
REMARK  218  A    between atoms: _544  and  _545
REMARK  219  A    between atoms: _544  and  _547
REMARK  220  A    between atoms: _547  and  _548
REMARK  221  A    between atoms: _551  and  _553
REMARK  222  A    between atoms: _553  and  _554
REMARK  223  A    between atoms: _553  and  _556
REMARK  224  A    between atoms: _556  and  _557
REMARK  225  A    between atoms: _559  and  _561
REMARK  226  A    between atoms: _561  and  _562
REMARK  227  A    between atoms: _561  and  _564
REMARK  228  A    between atoms: _564  and  _565
REMARK  229  A    between atoms: _568  and  _570
REMARK  230  A    between atoms: _570  and  _571
REMARK  231  A    between atoms: _570  and  _573
REMARK  232  A    between atoms: _573  and  _574
REMARK  233  A    between atoms: _574  and  _575
REMARK  234  A    between atoms: _578  and  _580
REMARK  235  A    between atoms: _580  and  _581
REMARK  236  A    between atoms: _580  and  _583
REMARK  237  A    between atoms: _583  and  _584
REMARK  238  A    between atoms: _587  and  _589
REMARK  239  A    between atoms: _589  and  _590
REMARK  240  A    between atoms: _592  and  _594
REMARK  241  A    between atoms: _594  and  _595
REMARK  242  A    between atoms: _594  and  _597
REMARK  243  A    between atoms: _597  and  _598
REMARK  244  A    between atoms: _601  and  _603
REMARK  245  A    between atoms: _603  and  _604
REMARK  246  A    between atoms: _603  and  _606
REMARK  247  A    between atoms: _606  and  _607
REMARK  248  A    between atoms: _609  and  _611
REMARK  249  A    between atoms: _611  and  _612
REMARK  250  A    between atoms: _615  and  _617
REMARK  251  A    between atoms: _617  and  _618
REMARK  252  A    between atoms: _617  and  _620
REMARK  253  A    between atoms: _620  and  _621
REMARK  254  A    between atoms: _623  and  _625
REMARK  255  A    between atoms: _625  and  _626
REMARK                            x       y       z     vdW  Elec       q    Type
REMARK                         _______ _______ _______ _____ _____    ______ ____
ROOT
ATOM      1  CA  GLU A   1      13.700  24.161  -9.016  0.00  0.00    +0.134 C 
ENDROOT
BRANCH   1   2
ATOM      2  N   GLU A   1      13.310  25.463  -8.456  0.00  0.00    -0.239 NA
ATOM      3  H   GLU A   1      13.598  25.705  -7.487  0.00  0.00    +0.142 HD
ENDBRANCH   1   2
BRANCH   1   4
ATOM      4  C   GLU A   1      12.892  23.093  -8.300  0.00  0.00    +0.224 C 
ATOM      5  O   GLU A   1      12.785  23.101  -7.069  0.00  0.00    -0.287 OA
ENDBRANCH   1   4
BRANCH   1   6
ATOM      6  CB  GLU A   1      15.186  23.855  -8.804  0.00  0.00    +0.037 C 
BRANCH   6   7
ATOM      7  CG  GLU A   1      16.136  24.852  -9.441  0.00  0.00    +0.116 C 
BRANCH   7   8
ATOM      8  CD  GLU A   1      17.605  24.486  -9.252  0.00  0.00    +0.365 C 
ATOM      9  OE2 GLU A   1      17.917  23.276  -9.125  0.00  0.00    -0.246 OA
ATOM     10  OE1 GLU A   1      18.450  25.413  -9.252  0.00  0.00    -0.246 OA
ENDBRANCH   7   8
ENDBRANCH   6   7
ENDBRANCH   1   6
TORSDOF 5
REMARK  Name = ../refined-set-2016/4ryd/4ryd_pocket.pdb
REMARK  255 active torsions:
REMARK  status: ('A' for Active; 'I' for Inactive)
REMARK    1  A    between atoms: _1  and  _3
REMARK    2  A    between atoms: _3  and  _4
REMARK    3  A    between atoms: _3  and  _6
REMARK    4  A    between atoms: _6  and  _7
REMARK    5  A    between atoms: _10  and  _12
REMARK    6  A    between atoms: _12  and  _13
REMARK    7  A    between atoms: _12  and  _15
REMARK    8  A    between atoms: _15  and  _16
REMARK    9  A    between atoms: _19  and  _21
REMARK   10  A    between atoms: _21  and  _22
REMARK   11  A    between atoms: _24  and  _26
REMARK   12  A    between atoms: _26  and  _27
REMARK   13  A    between atoms: _26  and  _29
REMARK   14  A    between atoms: _29  and  _30
REMARK   15  A    between atoms: _35  and  _37
REMARK   16  A    between atoms: _37  and  _38
REMARK   17  A    between atoms: _37  and  _40
REMARK   18  A    between atoms: _40  and  _41
REMARK   19  A    between atoms: _41  and  _42
REMARK   20  A    between atoms: _42  and  _43
REMARK   21  A    between atoms: _52  and  _54
REMARK   22  A    between atoms: _54  and  _55
REMARK   23  A    between atoms: _54  and  _57
REMARK   24  A    between atoms: _57  and  _58
REMARK   25  A    between atoms: _61  and  _63
REMARK   26  A    between atoms: _63  and  _64
REMARK   27  A    between atoms: _63  and  _66
REMARK   28  A    between atoms: _66  and  _67
REMARK   29  A    between atoms: _72  and  _74
REMARK   30  A    between atoms: _74  and  _75
REMARK   31  A    between atoms: _74  and  _77
REMARK   32  A    between atoms: _77  and  _78
REMARK   33  A    between atoms: _81  and  _83
REMARK   34  A    between atoms: _83  and  _84
REMARK   35  A    between atoms: _83  and  _86
REMARK   36  A    between atoms: _86  and  _87
REMARK   37  A    between atoms: _92  and  _94
REMARK   38  A    between atoms: _94  and  _95
REMARK   39  A    between atoms: _94  and  _97
REMARK   40  A    between atoms: _97  and  _98
REMARK   41  A    between atoms: _98  and  _99
REMARK   42  A    between atoms: _99  and  _100
REMARK   43  A    between atoms: _109  and  _111
REMARK   44  A    between atoms: _111  and  _112
REMARK   45  A    between atoms: _111  and  _114
REMARK   46  A    between atoms: _114  and  _115
REMARK   47  A    between atoms: _120  and  _122
REMARK   48  A    between atoms: _122  and  _123
REMARK   49  A    between atoms: _125  and  _127
REMARK   50  A    between atoms: _127  and  _128
REMARK   51  A    between atoms: _127  and  _130
REMARK   52  A    between atoms: _130  and  _131
REMARK   53  A    between atoms: _134  and  _136
REMARK   54  A    between atoms: _136  and  _137
REMARK   55  A    between atoms: _136  and  _139
REMARK   56  A    between atoms: _141  and  _143
REMARK   57  A    between atoms: _143  and  _144
REMARK   58  A    between atoms: _143  and  _146
REMARK   59  A    between atoms: _146  and  _147
REMARK   60  A    between atoms: _147  and  _148
REMARK   61  A    between atoms: _148  and  _149
REMARK   62  A    between atoms: _158  and  _160
REMARK   63  A    between atoms: _160  and  _161
REMARK   64  A    between atoms: _160  and  _163
REMARK   65  A    between atoms: _163  and  _164
REMARK   66  A    between atoms: _164  and  _165
REMARK   67  A    between atoms: _167  and  _169
REMARK   68  A    between atoms: _169  and  _170
REMARK   69  A    between atoms: _169  and  _172
REMARK   70  A    between atoms: _172  and  _173
REMARK   71  A    between atoms: _176  and  _178
REMARK   72  A    between atoms: _178  and  _179
REMARK   73  A    between atoms: _178  and  _181
REMARK   74  A    between atoms: _181  and  _182
REMARK   75  A    between atoms: _185  and  _187
REMARK   76  A    between atoms: _187  and  _188
REMARK   77  A    between atoms: _190  and  _192
REMARK   78  A    between atoms: _192  and  _193
REMARK   79  A    between atoms: _192  and  _195
REMARK   80  A    between atoms: _195  and  _196
REMARK   81  A    between atoms: _196  and  _197
REMARK   82  A    between atoms: _200  and  _202
REMARK   83  A    between atoms: _202  and  _203
REMARK   84  A    between atoms: _202  and  _205
REMARK   85  A    between atoms: _208  and  _210
REMARK   86  A    between atoms: _210  and  _211
REMARK   87  A    between atoms: _210  and  _213
REMARK   88  A    between atoms: _213  and  _214
REMARK   89  A    between atoms: _217  and  _219
REMARK   90  A    between atoms: _219  and  _220
REMARK   91  A    between atoms: _219  and  _222
REMARK   92  A    between atoms: _222  and  _223
REMARK   93  A    between atoms: _226  and  _228
REMARK   94  A    between atoms: _228  and  _229
REMARK   95  A    between atoms: _232  and  _234
REMARK   96  A    between atoms: _234  and  _235
REMARK   97  A    between atoms: _234  and  _237
REMARK   98  A    between atoms: _240  and  _242
REMARK   99  A    between atoms: _242  and  _243
REMARK  100  A    between atoms: _242  and  _245
REMARK  101  A    between atoms: _245  and  _246
REMARK  102  A    between atoms: _246  and  _247
REMARK  103  A    between atoms: _250  and  _252
REMARK  104  A    between atoms: _252  and  _253
REMARK  105  A    between atoms: _256  and  _258
REMARK  106  A    between atoms: _258  and  _259
REMARK  107  A    between atoms: _262  and  _264
REMARK  108  A    between atoms: _264  and  _265
REMARK  109  A    between atoms: _264  and  _267
REMARK  110  A    between atoms: _267  and  _268
REMARK  111  A    between atoms: _270  and  _272
REMARK  112  A    between atoms: _272  and  _273
REMARK  113  A    between atoms: _272  and  _275
REMARK  114  A    between atoms: _275  and  _276
REMARK  115  A    between atoms: _286  and  _288
REMARK  116  A    between atoms: _288  and  _289
REMARK  117  A    between atoms: _292  and  _293
REMARK  118  A    between atoms: _298  and  _300
REMARK  119  A    between atoms: _300  and  _301
REMARK  120  A    between atoms: _300  and  _303
REMARK  121  A    between atoms: _303  and  _304
REMARK  122  A    between atoms: _304  and  _305
REMARK  123  A    between atoms: _308  and  _310
REMARK  124  A    between atoms: _310  and  _311
REMARK  125  A    between atoms: _310  and  _313
REMARK  126  A    between atoms: _313  and  _314
REMARK  127  A    between atoms: _317  and  _319
REMARK  128  A    between atoms: _319  and  _320
REMARK  129  A    between atoms: _319  and  _322
REMARK  130  A    between atoms: _322  and  _323
REMARK  131  A    between atoms: _326  and  _328
REMARK  132  A    between atoms: _328  and  _329
REMARK  133  A    between atoms: _328  and  _331
REMARK  134  A    between atoms: _331  and  _332
REMARK  135  A    between atoms: _335  and  _337
REMARK  136  A    between atoms: _337  and  _338
REMARK  137  A    between atoms: _337  and  _340
REMARK  138  A    between atoms: _343  and  _345
REMARK  139  A    between atoms: _345  and  _346
REMARK  140  A    between atoms: _345  and  _348
REMARK  141  A    between atoms: _348  and  _349
REMARK  142  A    between atoms: _352  and  _354
REMARK  143  A    between atoms: _354  and  _355
REMARK  144  A    between atoms: _358  and  _359
REMARK  145  A    between atoms: _364  and  _366
REMARK  146  A    between atoms: _366  and  _367
REMARK  147  A    between atoms: _370  and  _372
REMARK  148  A    between atoms: _372  and  _373
REMARK  149  A    between atoms: _372  and  _375
REMARK  150  A    between atoms: _375  and  _376
REMARK  151  A    between atoms: _376  and  _377
REMARK  152  A    between atoms: _377  and  _378
REMARK  153  A    between atoms: _387  and  _389
REMARK  154  A    between atoms: _389  and  _390
REMARK  155  A    between atoms: _389  and  _392
REMARK  156  A    between atoms: _392  and  _393
REMARK  157  A    between atoms: _396  and  _398
REMARK  158  A    between atoms: _398  and  _399
REMARK  159  A    between atoms: _402  and  _404
REMARK  160  A    between atoms: _404  and  _405
REMARK  161  A    between atoms: _404  and  _407
REMARK  162  A    between atoms: _407  and  _408
REMARK  163  A    between atoms: _408  and  _409
REMARK  164  A    between atoms: _412  and  _414
REMARK  165  A    between atoms: _414  and  _415
REMARK  166  A    between atoms: _414  and  _417
REMARK  167  A    between atoms: _417  and  _418
REMARK  168  A    between atoms: _428  and  _430
REMARK  169  A    between atoms: _430  and  _431
REMARK  170  A    between atoms: _434  and  _436
REMARK  171  A    between atoms: _436  and  _437
REMARK  172  A    between atoms: _436  and  _439
REMARK  173  A    between atoms: _439  and  _440
REMARK  174  A    between atoms: _442  and  _444
REMARK  175  A    between atoms: _444  and  _445
REMARK  176  A    between atoms: _447  and  _449
REMARK  177  A    between atoms: _449  and  _450
REMARK  178  A    between atoms: _449  and  _452
REMARK  179  A    between atoms: _452  and  _453
REMARK  180  A    between atoms: _458  and  _460
REMARK  181  A    between atoms: _460  and  _461
REMARK  182  A    between atoms: _463  and  _465
REMARK  183  A    between atoms: _465  and  _466
REMARK  184  A    between atoms: _465  and  _468
REMARK  185  A    between atoms: _468  and  _469
REMARK  186  A    between atoms: _469  and  _471
REMARK  187  A    between atoms: _471  and  CA_629
REMARK  188  A    between atoms: _472  and  _474
REMARK  189  A    between atoms: _474  and  _475
REMARK  190  A    between atoms: _474  and  _477
REMARK  191  A    between atoms: _477  and  _478
REMARK  192  A    between atoms: _480  and  _482
REMARK  193  A    between atoms: _482  and  _483
REMARK  194  A    between atoms: _482  and  _485
REMARK  195  A    between atoms: _487  and  _489
REMARK  196  A    between atoms: _489  and  _490
REMARK  197  A    between atoms: _489  and  _492
REMARK  198  A    between atoms: _494  and  _496
REMARK  199  A    between atoms: _496  and  _497
REMARK  200  A    between atoms: _496  and  _499
REMARK  201  A    between atoms: _499  and  _500
REMARK  202  A    between atoms: _503  and  _505
REMARK  203  A    between atoms: _505  and  _506
REMARK  204  A    between atoms: _508  and  _510
REMARK  205  A    between atoms: _510  and  _511
REMARK  206  A    between atoms: _510  and  _513
REMARK  207  A    between atoms: _513  and  _514
REMARK  208  A    between atoms: _519  and  _520
REMARK  209  A    between atoms: _522  and  _524
REMARK  210  A    between atoms: _524  and  _525
REMARK  211  A    between atoms: _524  and  _527
REMARK  212  A    between atoms: _527  and  _528
REMARK  213  A    between atoms: _531  and  _533
REMARK  214  A    between atoms: _533  and  _534
REMARK  215  A    between atoms: _533  and  _536
REMARK  216  A    between atoms: _536  and  _537
REMARK  217  A    between atoms: _542  and  _544
REMARK  218  A    between atoms: _544  and  _545
REMARK  219  A    between atoms: _544  and  _547
REMARK  220  A    between atoms: _547  and  _548
REMARK  221  A    between atoms: _551  and  _553
REMARK  222  A    between atoms: _553  and  _554
REMARK  223  A    between atoms: _553  and  _556
REMARK  224  A    between atoms: _556  and  _557
REMARK  225  A    between atoms: _559  and  _561
REMARK  226  A    between atoms: _561  and  _562
REMARK  227  A    between atoms: _561  and  _564
REMARK  228  A    between atoms: _564  and  _565
REMARK  229  A    between atoms: _568  and  _570
REMARK  230  A    between atoms: _570  and  _571
REMARK  231  A    between atoms: _570  and  _573
REMARK  232  A    between atoms: _573  and  _574
REMARK  233  A    between atoms: _574  and  _575
REMARK  234  A    between atoms: _578  and  _580
REMARK  235  A    between atoms: _580  and  _581
REMARK  236  A    between atoms: _580  and  _583
REMARK  237  A    between atoms: _583  and  _584
REMARK  238  A    between atoms: _587  and  _589
REMARK  239  A    between atoms: _589  and  _590
REMARK  240  A    between atoms: _592  and  _594
REMARK  241  A    between atoms: _594  and  _595
REMARK  242  A    between atoms: _594  and  _597
REMARK  243  A    between atoms: _597  and  _598
REMARK  244  A    between atoms: _601  and  _603
REMARK  245  A    between atoms: _603  and  _604
REMARK  246  A    between atoms: _603  and  _606
REMARK  247  A    between atoms: _606  and  _607
REMARK  248  A    between atoms: _609  and  _611
REMARK  249  A    between atoms: _611  and  _612
REMARK  250  A    between atoms: _615  and  _617
REMARK  251  A    between atoms: _617  and  _618
REMARK  252  A    between atoms: _617  and  _620
REMARK  253  A    between atoms: _620  and  _621
REMARK  254  A    between atoms: _623  and  _625
REMARK  255  A    between atoms: _625  and  _626
REMARK                            x       y       z     vdW  Elec       q    Type
REMARK                         _______ _______ _______ _____ _____    ______ ____
ROOT
ATOM      1  CA  SER A   4      18.651  32.970  -1.259  0.00  0.00    +0.178 C 
ENDROOT
BRANCH   1   4
ATOM      2  C   THR A   3      16.894  31.502  -2.137  0.00  0.00    +0.243 C 
ATOM      3  O   THR A   3      16.733  30.955  -1.043  0.00  0.00    -0.273 OA
ATOM      4  N   SER A   4      17.775  32.484  -2.335  0.00  0.00    -0.295 N 
ATOM      5  H   SER A   4      17.844  32.918  -3.278  0.00  0.00    +0.150 HD
BRANCH   2   6
ATOM      6  CA  THR A   3      16.057  31.077  -3.342  0.00  0.00    +0.176 C 
BRANCH   6   9
ATOM      7  C   GLY A   2      15.314  33.323  -3.879  0.00  0.00    +0.243 C 
ATOM      8  O   GLY A   2      14.880  33.523  -2.732  0.00  0.00    -0.273 OA
ATOM      9  N   THR A   3      15.890  32.185  -4.258  0.00  0.00    -0.295 N 
ATOM     10  H   THR A   3      16.229  32.089  -5.237  0.00  0.00    +0.150 HD
BRANCH   7  11
ATOM     11  CA  GLY A   2      15.219  34.366  -4.967  0.00  0.00    +0.176 C 
BRANCH  11  14
ATOM     12  C   THR A   1      15.602  36.517  -3.894  0.00  0.00    +0.241 C 
ATOM     13  O   THR A   1      16.681  36.161  -3.434  0.00  0.00    -0.274 OA
ATOM     14  N   GLY A   2      14.822  35.718  -4.615  0.00  0.00    -0.295 N 
ATOM     15  H   GLY A   2      13.899  36.072  -4.937  0.00  0.00    +0.150 HD
BRANCH  12  16
ATOM     16  CA  THR A   1      15.056  37.936  -3.679  0.00  0.00    +0.172 C 
BRANCH  16  17
ATOM     17  N   THR A   1      15.829  38.864  -2.863  0.00  0.00    -0.236 NA
ATOM     18  H   THR A   1      16.853  38.953  -3.021  0.00  0.00    +0.142 HD
ENDBRANCH  16  17
BRANCH  16  19
ATOM     19  CB  THR A   1      14.872  38.544  -5.085  0.00  0.00    +0.135 C 
ATOM     20  CG2 THR A   1      14.378  39.993  -5.016  0.00  0.00    +0.034 C 
BRANCH  19  21
ATOM     21  OG1 THR A   1      16.142  38.565  -5.748  0.00  0.00    -0.383 OA
ATOM     22  HG1 THR A   1      16.035  38.954  -6.652  0.00  0.00    +0.210 HD
ENDBRANCH  19  21
ENDBRANCH  16  19
ENDBRANCH  12  16
ENDBRANCH  11  14
ENDBRANCH   7  11
ENDBRANCH   6   9
BRANCH   6  23
ATOM     23  CB  THR A   3      16.734  29.880  -4.049  0.00  0.00    +0.137 C 
ATOM     24  CG2 THR A   3      18.150  30.245  -4.479  0.00  0.00    +0.034 C 
BRANCH  23  25
ATOM     25  OG1 THR A   3      16.784  28.764  -3.157  0.00  0.00    -0.382 OA
ATOM     26  HG1 THR A   3      15.864  28.513  -2.892  0.00  0.00    +0.210 HD
ENDBRANCH  23  25
ENDBRANCH   6  23
ENDBRANCH   2   6
ENDBRANCH   1   4
BRANCH   1  27
ATOM     27  C   SER A   4      17.898  33.428  -0.022  0.00  0.00    +0.243 C 
ATOM     28  O   SER A   4      18.383  33.248   1.096  0.00  0.00    -0.273 OA
ATOM     29  N   ALA A   5      16.723  34.028  -0.224  0.00  0.00    -0.297 N 
ATOM     30  H   ALA A   5      16.358  34.126  -1.193  0.00  0.00    +0.150 HD
BRANCH  29  31
ATOM     31  CA  ALA A   5      15.943  34.549   0.895  0.00  0.00    +0.149 C 
ATOM     32  CB  ALA A   5      15.005  35.656   0.403  0.00  0.00    +0.031 C 
BRANCH  31  33
ATOM     33  C   ALA A   5      15.145  33.503   1.669  0.00  0.00    +0.241 C 
ATOM     34  O   ALA A   5      14.743  33.749   2.806  0.00  0.00    -0.273 OA
ATOM     35  N   SER A   6      14.926  32.335   1.079  0.00  0.00    -0.295 N 
ATOM     36  H   SER A   6      15.310  32.149   0.131  0.00  0.00    +0.150 HD
BRANCH  35  37
ATOM     37  CA  SER A   6      14.147  31.316   1.763  0.00  0.00    +0.178 C 
BRANCH  37  38
ATOM     38  C   SER A   6      14.874  30.547   2.843  0.00  0.00    +0.243 C 
ATOM     39  O   SER A   6      14.343  30.373   3.930  0.00  0.00    -0.273 OA
ATOM     40  N   ALA A   7      16.087  30.087   2.565  0.00  0.00    -0.298 N 
ATOM     41  H   ALA A   7      16.514  30.274   1.635  0.00  0.00    +0.150 HD
BRANCH  40  42
ATOM     42  CA  ALA A   7      16.823  29.317   3.568  0.00  0.00    +0.137 C 
ATOM     43  CB  ALA A   7      18.189  28.894   3.014  0.00  0.00    +0.030 C 
BRANCH  42  44
ATOM     44  C   ALA A   7      16.996  30.057   4.908  0.00  0.00    +0.227 C 
ATOM     45  O   ALA A   7      16.795  29.479   5.983  0.00  0.00    -0.286 OA
ENDBRANCH  42  44
ENDBRANCH  40  42
ENDBRANCH  37  38
BRANCH  37  46
ATOM     46  CB  SER A   6      13.545  30.347   0.745  0.00  0.00    +0.166 C 
BRANCH  46  47
ATOM     47  OG  SER A   6      12.503  31.001   0.043  0.00  0.00    -0.380 OA
ATOM     48  H   SER A   6      12.110  30.377  -0.618  0.00  0.00    +0.211 HD
ENDBRANCH  46  47
ENDBRANCH  37  46
ENDBRANCH  35  37
ENDBRANCH  31  33
ENDBRANCH  29  31
ENDBRANCH   1  27
BRANCH   1  49
ATOM     49  CB  SER A   4      19.510  34.157  -1.717  0.00  0.00    +0.166 C 
BRANCH  49  50
ATOM     50  OG  SER A   4      20.322  33.867  -2.838  0.00  0.00    -0.380 OA
ATOM     51  H   SER A   4      19.748  33.604  -3.601  0.00  0.00    +0.211 HD
ENDBRANCH  49  50
ENDBRANCH   1  49
TORSDOF 22
REMARK  Name = ../refined-set-2016/4ryd/4ryd_pocket.pdb
REMARK  255 active torsions:
REMARK  status: ('A' for Active; 'I' for Inactive)
REMARK    1  A    between atoms: _1  and  _3
REMARK    2  A    between atoms: _3  and  _4
REMARK    3  A    between atoms: _3  and  _6
REMARK    4  A    between atoms: _6  and  _7
REMARK    5  A    between atoms: _10  and  _12
REMARK    6  A    between atoms: _12  and  _13
REMARK    7  A    between atoms: _12  and  _15
REMARK    8  A    between atoms: _15  and  _16
REMARK    9  A    between atoms: _19  and  _21
REMARK   10  A    between atoms: _21  and  _22
REMARK   11  A    between atoms: _24  and  _26
REMARK   12  A    between atoms: _26  and  _27
REMARK   13  A    between atoms: _26  and  _29
REMARK   14  A    between atoms: _29  and  _30
REMARK   15  A    between atoms: _35  and  _37
REMARK   16  A    between atoms: _37  and  _38
REMARK   17  A    between atoms: _37  and  _40
REMARK   18  A    between atoms: _40  and  _41
REMARK   19  A    between atoms: _41  and  _42
REMARK   20  A    between atoms: _42  and  _43
REMARK   21  A    between atoms: _52  and  _54
REMARK   22  A    between atoms: _54  and  _55
REMARK   23  A    between atoms: _54  and  _57
REMARK   24  A    between atoms: _57  and  _58
REMARK   25  A    between atoms: _61  and  _63
REMARK   26  A    between atoms: _63  and  _64
REMARK   27  A    between atoms: _63  and  _66
REMARK   28  A    between atoms: _66  and  _67
REMARK   29  A    between atoms: _72  and  _74
REMARK   30  A    between atoms: _74  and  _75
REMARK   31  A    between atoms: _74  and  _77
REMARK   32  A    between atoms: _77  and  _78
REMARK   33  A    between atoms: _81  and  _83
REMARK   34  A    between atoms: _83  and  _84
REMARK   35  A    between atoms: _83  and  _86
REMARK   36  A    between atoms: _86  and  _87
REMARK   37  A    between atoms: _92  and  _94
REMARK   38  A    between atoms: _94  and  _95
REMARK   39  A    between atoms: _94  and  _97
REMARK   40  A    between atoms: _97  and  _98
REMARK   41  A    between atoms: _98  and  _99
REMARK   42  A    between atoms: _99  and  _100
REMARK   43  A    between atoms: _109  and  _111
REMARK   44  A    between atoms: _111  and  _112
REMARK   45  A    between atoms: _111  and  _114
REMARK   46  A    between atoms: _114  and  _115
REMARK   47  A    between atoms: _120  and  _122
REMARK   48  A    between atoms: _122  and  _123
REMARK   49  A    between atoms: _125  and  _127
REMARK   50  A    between atoms: _127  and  _128
REMARK   51  A    between atoms: _127  and  _130
REMARK   52  A    between atoms: _130  and  _131
REMARK   53  A    between atoms: _134  and  _136
REMARK   54  A    between atoms: _136  and  _137
REMARK   55  A    between atoms: _136  and  _139
REMARK   56  A    between atoms: _141  and  _143
REMARK   57  A    between atoms: _143  and  _144
REMARK   58  A    between atoms: _143  and  _146
REMARK   59  A    between atoms: _146  and  _147
REMARK   60  A    between atoms: _147  and  _148
REMARK   61  A    between atoms: _148  and  _149
REMARK   62  A    between atoms: _158  and  _160
REMARK   63  A    between atoms: _160  and  _161
REMARK   64  A    between atoms: _160  and  _163
REMARK   65  A    between atoms: _163  and  _164
REMARK   66  A    between atoms: _164  and  _165
REMARK   67  A    between atoms: _167  and  _169
REMARK   68  A    between atoms: _169  and  _170
REMARK   69  A    between atoms: _169  and  _172
REMARK   70  A    between atoms: _172  and  _173
REMARK   71  A    between atoms: _176  and  _178
REMARK   72  A    between atoms: _178  and  _179
REMARK   73  A    between atoms: _178  and  _181
REMARK   74  A    between atoms: _181  and  _182
REMARK   75  A    between atoms: _185  and  _187
REMARK   76  A    between atoms: _187  and  _188
REMARK   77  A    between atoms: _190  and  _192
REMARK   78  A    between atoms: _192  and  _193
REMARK   79  A    between atoms: _192  and  _195
REMARK   80  A    between atoms: _195  and  _196
REMARK   81  A    between atoms: _196  and  _197
REMARK   82  A    between atoms: _200  and  _202
REMARK   83  A    between atoms: _202  and  _203
REMARK   84  A    between atoms: _202  and  _205
REMARK   85  A    between atoms: _208  and  _210
REMARK   86  A    between atoms: _210  and  _211
REMARK   87  A    between atoms: _210  and  _213
REMARK   88  A    between atoms: _213  and  _214
REMARK   89  A    between atoms: _217  and  _219
REMARK   90  A    between atoms: _219  and  _220
REMARK   91  A    between atoms: _219  and  _222
REMARK   92  A    between atoms: _222  and  _223
REMARK   93  A    between atoms: _226  and  _228
REMARK   94  A    between atoms: _228  and  _229
REMARK   95  A    between atoms: _232  and  _234
REMARK   96  A    between atoms: _234  and  _235
REMARK   97  A    between atoms: _234  and  _237
REMARK   98  A    between atoms: _240  and  _242
REMARK   99  A    between atoms: _242  and  _243
REMARK  100  A    between atoms: _242  and  _245
REMARK  101  A    between atoms: _245  and  _246
REMARK  102  A    between atoms: _246  and  _247
REMARK  103  A    between atoms: _250  and  _252
REMARK  104  A    between atoms: _252  and  _253
REMARK  105  A    between atoms: _256  and  _258
REMARK  106  A    between atoms: _258  and  _259
REMARK  107  A    between atoms: _262  and  _264
REMARK  108  A    between atoms: _264  and  _265
REMARK  109  A    between atoms: _264  and  _267
REMARK  110  A    between atoms: _267  and  _268
REMARK  111  A    between atoms: _270  and  _272
REMARK  112  A    between atoms: _272  and  _273
REMARK  113  A    between atoms: _272  and  _275
REMARK  114  A    between atoms: _275  and  _276
REMARK  115  A    between atoms: _286  and  _288
REMARK  116  A    between atoms: _288  and  _289
REMARK  117  A    between atoms: _292  and  _293
REMARK  118  A    between atoms: _298  and  _300
REMARK  119  A    between atoms: _300  and  _301
REMARK  120  A    between atoms: _300  and  _303
REMARK  121  A    between atoms: _303  and  _304
REMARK  122  A    between atoms: _304  and  _305
REMARK  123  A    between atoms: _308  and  _310
REMARK  124  A    between atoms: _310  and  _311
REMARK  125  A    between atoms: _310  and  _313
REMARK  126  A    between atoms: _313  and  _314
REMARK  127  A    between atoms: _317  and  _319
REMARK  128  A    between atoms: _319  and  _320
REMARK  129  A    between atoms: _319  and  _322
REMARK  130  A    between atoms: _322  and  _323
REMARK  131  A    between atoms: _326  and  _328
REMARK  132  A    between atoms: _328  and  _329
REMARK  133  A    between atoms: _328  and  _331
REMARK  134  A    between atoms: _331  and  _332
REMARK  135  A    between atoms: _335  and  _337
REMARK  136  A    between atoms: _337  and  _338
REMARK  137  A    between atoms: _337  and  _340
REMARK  138  A    between atoms: _343  and  _345
REMARK  139  A    between atoms: _345  and  _346
REMARK  140  A    between atoms: _345  and  _348
REMARK  141  A    between atoms: _348  and  _349
REMARK  142  A    between atoms: _352  and  _354
REMARK  143  A    between atoms: _354  and  _355
REMARK  144  A    between atoms: _358  and  _359
REMARK  145  A    between atoms: _364  and  _366
REMARK  146  A    between atoms: _366  and  _367
REMARK  147  A    between atoms: _370  and  _372
REMARK  148  A    between atoms: _372  and  _373
REMARK  149  A    between atoms: _372  and  _375
REMARK  150  A    between atoms: _375  and  _376
REMARK  151  A    between atoms: _376  and  _377
REMARK  152  A    between atoms: _377  and  _378
REMARK  153  A    between atoms: _387  and  _389
REMARK  154  A    between atoms: _389  and  _390
REMARK  155  A    between atoms: _389  and  _392
REMARK  156  A    between atoms: _392  and  _393
REMARK  157  A    between atoms: _396  and  _398
REMARK  158  A    between atoms: _398  and  _399
REMARK  159  A    between atoms: _402  and  _404
REMARK  160  A    between atoms: _404  and  _405
REMARK  161  A    between atoms: _404  and  _407
REMARK  162  A    between atoms: _407  and  _408
REMARK  163  A    between atoms: _408  and  _409
REMARK  164  A    between atoms: _412  and  _414
REMARK  165  A    between atoms: _414  and  _415
REMARK  166  A    between atoms: _414  and  _417
REMARK  167  A    between atoms: _417  and  _418
REMARK  168  A    between atoms: _428  and  _430
REMARK  169  A    between atoms: _430  and  _431
REMARK  170  A    between atoms: _434  and  _436
REMARK  171  A    between atoms: _436  and  _437
REMARK  172  A    between atoms: _436  and  _439
REMARK  173  A    between atoms: _439  and  _440
REMARK  174  A    between atoms: _442  and  _444
REMARK  175  A    between atoms: _444  and  _445
REMARK  176  A    between atoms: _447  and  _449
REMARK  177  A    between atoms: _449  and  _450
REMARK  178  A    between atoms: _449  and  _452
REMARK  179  A    between atoms: _452  and  _453
REMARK  180  A    between atoms: _458  and  _460
REMARK  181  A    between atoms: _460  and  _461
REMARK  182  A    between atoms: _463  and  _465
REMARK  183  A    between atoms: _465  and  _466
REMARK  184  A    between atoms: _465  and  _468
REMARK  185  A    between atoms: _468  and  _469
REMARK  186  A    between atoms: _469  and  _471
REMARK  187  A    between atoms: _471  and  CA_629
REMARK  188  A    between atoms: _472  and  _474
REMARK  189  A    between atoms: _474  and  _475
REMARK  190  A    between atoms: _474  and  _477
REMARK  191  A    between atoms: _477  and  _478
REMARK  192  A    between atoms: _480  and  _482
REMARK  193  A    between atoms: _482  and  _483
REMARK  194  A    between atoms: _482  and  _485
REMARK  195  A    between atoms: _487  and  _489
REMARK  196  A    between atoms: _489  and  _490
REMARK  197  A    between atoms: _489  and  _492
REMARK  198  A    between atoms: _494  and  _496
REMARK  199  A    between atoms: _496  and  _497
REMARK  200  A    between atoms: _496  and  _499
REMARK  201  A    between atoms: _499  and  _500
REMARK  202  A    between atoms: _503  and  _505
REMARK  203  A    between atoms: _505  and  _506
REMARK  204  A    between atoms: _508  and  _510
REMARK  205  A    between atoms: _510  and  _511
REMARK  206  A    between atoms: _510  and  _513
REMARK  207  A    between atoms: _513  and  _514
REMARK  208  A    between atoms: _519  and  _520
REMARK  209  A    between atoms: _522  and  _524
REMARK  210  A    between atoms: _524  and  _525
REMARK  211  A    between atoms: _524  and  _527
REMARK  212  A    between atoms: _527  and  _528
REMARK  213  A    between atoms: _531  and  _533
REMARK  214  A    between atoms: _533  and  _534
REMARK  215  A    between atoms: _533  and  _536
REMARK  216  A    between atoms: _536  and  _537
REMARK  217  A    between atoms: _542  and  _544
REMARK  218  A    between atoms: _544  and  _545
REMARK  219  A    between atoms: _544  and  _547
REMARK  220  A    between atoms: _547  and  _548
REMARK  221  A    between atoms: _551  and  _553
REMARK  222  A    between atoms: _553  and  _554
REMARK  223  A    between atoms: _553  and  _556
REMARK  224  A    between atoms: _556  and  _557
REMARK  225  A    between atoms: _559  and  _561
REMARK  226  A    between atoms: _561  and  _562
REMARK  227  A    between atoms: _561  and  _564
REMARK  228  A    between atoms: _564  and  _565
REMARK  229  A    between atoms: _568  and  _570
REMARK  230  A    between atoms: _570  and  _571
REMARK  231  A    between atoms: _570  and  _573
REMARK  232  A    between atoms: _573  and  _574
REMARK  233  A    between atoms: _574  and  _575
REMARK  234  A    between atoms: _578  and  _580
REMARK  235  A    between atoms: _580  and  _581
REMARK  236  A    between atoms: _580  and  _583
REMARK  237  A    between atoms: _583  and  _584
REMARK  238  A    between atoms: _587  and  _589
REMARK  239  A    between atoms: _589  and  _590
REMARK  240  A    between atoms: _592  and  _594
REMARK  241  A    between atoms: _594  and  _595
REMARK  242  A    between atoms: _594  and  _597
REMARK  243  A    between atoms: _597  and  _598
REMARK  244  A    between atoms: _601  and  _603
REMARK  245  A    between atoms: _603  and  _604
REMARK  246  A    between atoms: _603  and  _606
REMARK  247  A    between atoms: _606  and  _607
REMARK  248  A    between atoms: _609  and  _611
REMARK  249  A    between atoms: _611  and  _612
REMARK  250  A    between atoms: _615  and  _617
REMARK  251  A    between atoms: _617  and  _618
REMARK  252  A    between atoms: _617  and  _620
REMARK  253  A    between atoms: _620  and  _621
REMARK  254  A    between atoms: _623  and  _625
REMARK  255  A    between atoms: _625  and  _626
REMARK                            x       y       z     vdW  Elec       q    Type
REMARK                         _______ _______ _______ _____ _____    ______ ____
ROOT
ATOM      1  O   HOH     1      18.693  34.240  -4.767  0.00  0.00    +0.000 OA
ENDROOT
TORSDOF 0
REMARK  Name = ../refined-set-2016/4ryd/4ryd_pocket.pdb
REMARK  255 active torsions:
REMARK  status: ('A' for Active; 'I' for Inactive)
REMARK    1  A    between atoms: _1  and  _3
REMARK    2  A    between atoms: _3  and  _4
REMARK    3  A    between atoms: _3  and  _6
REMARK    4  A    between atoms: _6  and  _7
REMARK    5  A    between atoms: _10  and  _12
REMARK    6  A    between atoms: _12  and  _13
REMARK    7  A    between atoms: _12  and  _15
REMARK    8  A    between atoms: _15  and  _16
REMARK    9  A    between atoms: _19  and  _21
REMARK   10  A    between atoms: _21  and  _22
REMARK   11  A    between atoms: _24  and  _26
REMARK   12  A    between atoms: _26  and  _27
REMARK   13  A    between atoms: _26  and  _29
REMARK   14  A    between atoms: _29  and  _30
REMARK   15  A    between atoms: _35  and  _37
REMARK   16  A    between atoms: _37  and  _38
REMARK   17  A    between atoms: _37  and  _40
REMARK   18  A    between atoms: _40  and  _41
REMARK   19  A    between atoms: _41  and  _42
REMARK   20  A    between atoms: _42  and  _43
REMARK   21  A    between atoms: _52  and  _54
REMARK   22  A    between atoms: _54  and  _55
REMARK   23  A    between atoms: _54  and  _57
REMARK   24  A    between atoms: _57  and  _58
REMARK   25  A    between atoms: _61  and  _63
REMARK   26  A    between atoms: _63  and  _64
REMARK   27  A    between atoms: _63  and  _66
REMARK   28  A    between atoms: _66  and  _67
REMARK   29  A    between atoms: _72  and  _74
REMARK   30  A    between atoms: _74  and  _75
REMARK   31  A    between atoms: _74  and  _77
REMARK   32  A    between atoms: _77  and  _78
REMARK   33  A    between atoms: _81  and  _83
REMARK   34  A    between atoms: _83  and  _84
REMARK   35  A    between atoms: _83  and  _86
REMARK   36  A    between atoms: _86  and  _87
REMARK   37  A    between atoms: _92  and  _94
REMARK   38  A    between atoms: _94  and  _95
REMARK   39  A    between atoms: _94  and  _97
REMARK   40  A    between atoms: _97  and  _98
REMARK   41  A    between atoms: _98  and  _99
REMARK   42  A    between atoms: _99  and  _100
REMARK   43  A    between atoms: _109  and  _111
REMARK   44  A    between atoms: _111  and  _112
REMARK   45  A    between atoms: _111  and  _114
REMARK   46  A    between atoms: _114  and  _115
REMARK   47  A    between atoms: _120  and  _122
REMARK   48  A    between atoms: _122  and  _123
REMARK   49  A    between atoms: _125  and  _127
REMARK   50  A    between atoms: _127  and  _128
REMARK   51  A    between atoms: _127  and  _130
REMARK   52  A    between atoms: _130  and  _131
REMARK   53  A    between atoms: _134  and  _136
REMARK   54  A    between atoms: _136  and  _137
REMARK   55  A    between atoms: _136  and  _139
REMARK   56  A    between atoms: _141  and  _143
REMARK   57  A    between atoms: _143  and  _144
REMARK   58  A    between atoms: _143  and  _146
REMARK   59  A    between atoms: _146  and  _147
REMARK   60  A    between atoms: _147  and  _148
REMARK   61  A    between atoms: _148  and  _149
REMARK   62  A    between atoms: _158  and  _160
REMARK   63  A    between atoms: _160  and  _161
REMARK   64  A    between atoms: _160  and  _163
REMARK   65  A    between atoms: _163  and  _164
REMARK   66  A    between atoms: _164  and  _165
REMARK   67  A    between atoms: _167  and  _169
REMARK   68  A    between atoms: _169  and  _170
REMARK   69  A    between atoms: _169  and  _172
REMARK   70  A    between atoms: _172  and  _173
REMARK   71  A    between atoms: _176  and  _178
REMARK   72  A    between atoms: _178  and  _179
REMARK   73  A    between atoms: _178  and  _181
REMARK   74  A    between atoms: _181  and  _182
REMARK   75  A    between atoms: _185  and  _187
REMARK   76  A    between atoms: _187  and  _188
REMARK   77  A    between atoms: _190  and  _192
REMARK   78  A    between atoms: _192  and  _193
REMARK   79  A    between atoms: _192  and  _195
REMARK   80  A    between atoms: _195  and  _196
REMARK   81  A    between atoms: _196  and  _197
REMARK   82  A    between atoms: _200  and  _202
REMARK   83  A    between atoms: _202  and  _203
REMARK   84  A    between atoms: _202  and  _205
REMARK   85  A    between atoms: _208  and  _210
REMARK   86  A    between atoms: _210  and  _211
REMARK   87  A    between atoms: _210  and  _213
REMARK   88  A    between atoms: _213  and  _214
REMARK   89  A    between atoms: _217  and  _219
REMARK   90  A    between atoms: _219  and  _220
REMARK   91  A    between atoms: _219  and  _222
REMARK   92  A    between atoms: _222  and  _223
REMARK   93  A    between atoms: _226  and  _228
REMARK   94  A    between atoms: _228  and  _229
REMARK   95  A    between atoms: _232  and  _234
REMARK   96  A    between atoms: _234  and  _235
REMARK   97  A    between atoms: _234  and  _237
REMARK   98  A    between atoms: _240  and  _242
REMARK   99  A    between atoms: _242  and  _243
REMARK  100  A    between atoms: _242  and  _245
REMARK  101  A    between atoms: _245  and  _246
REMARK  102  A    between atoms: _246  and  _247
REMARK  103  A    between atoms: _250  and  _252
REMARK  104  A    between atoms: _252  and  _253
REMARK  105  A    between atoms: _256  and  _258
REMARK  106  A    between atoms: _258  and  _259
REMARK  107  A    between atoms: _262  and  _264
REMARK  108  A    between atoms: _264  and  _265
REMARK  109  A    between atoms: _264  and  _267
REMARK  110  A    between atoms: _267  and  _268
REMARK  111  A    between atoms: _270  and  _272
REMARK  112  A    between atoms: _272  and  _273
REMARK  113  A    between atoms: _272  and  _275
REMARK  114  A    between atoms: _275  and  _276
REMARK  115  A    between atoms: _286  and  _288
REMARK  116  A    between atoms: _288  and  _289
REMARK  117  A    between atoms: _292  and  _293
REMARK  118  A    between atoms: _298  and  _300
REMARK  119  A    between atoms: _300  and  _301
REMARK  120  A    between atoms: _300  and  _303
REMARK  121  A    between atoms: _303  and  _304
REMARK  122  A    between atoms: _304  and  _305
REMARK  123  A    between atoms: _308  and  _310
REMARK  124  A    between atoms: _310  and  _311
REMARK  125  A    between atoms: _310  and  _313
REMARK  126  A    between atoms: _313  and  _314
REMARK  127  A    between atoms: _317  and  _319
REMARK  128  A    between atoms: _319  and  _320
REMARK  129  A    between atoms: _319  and  _322
REMARK  130  A    between atoms: _322  and  _323
REMARK  131  A    between atoms: _326  and  _328
REMARK  132  A    between atoms: _328  and  _329
REMARK  133  A    between atoms: _328  and  _331
REMARK  134  A    between atoms: _331  and  _332
REMARK  135  A    between atoms: _335  and  _337
REMARK  136  A    between atoms: _337  and  _338
REMARK  137  A    between atoms: _337  and  _340
REMARK  138  A    between atoms: _343  and  _345
REMARK  139  A    between atoms: _345  and  _346
REMARK  140  A    between atoms: _345  and  _348
REMARK  141  A    between atoms: _348  and  _349
REMARK  142  A    between atoms: _352  and  _354
REMARK  143  A    between atoms: _354  and  _355
REMARK  144  A    between atoms: _358  and  _359
REMARK  145  A    between atoms: _364  and  _366
REMARK  146  A    between atoms: _366  and  _367
REMARK  147  A    between atoms: _370  and  _372
REMARK  148  A    between atoms: _372  and  _373
REMARK  149  A    between atoms: _372  and  _375
REMARK  150  A    between atoms: _375  and  _376
REMARK  151  A    between atoms: _376  and  _377
REMARK  152  A    between atoms: _377  and  _378
REMARK  153  A    between atoms: _387  and  _389
REMARK  154  A    between atoms: _389  and  _390
REMARK  155  A    between atoms: _389  and  _392
REMARK  156  A    between atoms: _392  and  _393
REMARK  157  A    between atoms: _396  and  _398
REMARK  158  A    between atoms: _398  and  _399
REMARK  159  A    between atoms: _402  and  _404
REMARK  160  A    between atoms: _404  and  _405
REMARK  161  A    between atoms: _404  and  _407
REMARK  162  A    between atoms: _407  and  _408
REMARK  163  A    between atoms: _408  and  _409
REMARK  164  A    between atoms: _412  and  _414
REMARK  165  A    between atoms: _414  and  _415
REMARK  166  A    between atoms: _414  and  _417
REMARK  167  A    between atoms: _417  and  _418
REMARK  168  A    between atoms: _428  and  _430
REMARK  169  A    between atoms: _430  and  _431
REMARK  170  A    between atoms: _434  and  _436
REMARK  171  A    between atoms: _436  and  _437
REMARK  172  A    between atoms: _436  and  _439
REMARK  173  A    between atoms: _439  and  _440
REMARK  174  A    between atoms: _442  and  _444
REMARK  175  A    between atoms: _444  and  _445
REMARK  176  A    between atoms: _447  and  _449
REMARK  177  A    between atoms: _449  and  _450
REMARK  178  A    between atoms: _449  and  _452
REMARK  179  A    between atoms: _452  and  _453
REMARK  180  A    between atoms: _458  and  _460
REMARK  181  A    between atoms: _460  and  _461
REMARK  182  A    between atoms: _463  and  _465
REMARK  183  A    between atoms: _465  and  _466
REMARK  184  A    between atoms: _465  and  _468
REMARK  185  A    between atoms: _468  and  _469
REMARK  186  A    between atoms: _469  and  _471
REMARK  187  A    between atoms: _471  and  CA_629
REMARK  188  A    between atoms: _472  and  _474
REMARK  189  A    between atoms: _474  and  _475
REMARK  190  A    between atoms: _474  and  _477
REMARK  191  A    between atoms: _477  and  _478
REMARK  192  A    between atoms: _480  and  _482
REMARK  193  A    between atoms: _482  and  _483
REMARK  194  A    between atoms: _482  and  _485
REMARK  195  A    between atoms: _487  and  _489
REMARK  196  A    between atoms: _489  and  _490
REMARK  197  A    between atoms: _489  and  _492
REMARK  198  A    between atoms: _494  and  _496
REMARK  199  A    between atoms: _496  and  _497
REMARK  200  A    between atoms: _496  and  _499
REMARK  201  A    between atoms: _499  and  _500
REMARK  202  A    between atoms: _503  and  _505
REMARK  203  A    between atoms: _505  and  _506
REMARK  204  A    between atoms: _508  and  _510
REMARK  205  A    between atoms: _510  and  _511
REMARK  206  A    between atoms: _510  and  _513
REMARK  207  A    between atoms: _513  and  _514
REMARK  208  A    between atoms: _519  and  _520
REMARK  209  A    between atoms: _522  and  _524
REMARK  210  A    between atoms: _524  and  _525
REMARK  211  A    between atoms: _524  and  _527
REMARK  212  A    between atoms: _527  and  _528
REMARK  213  A    between atoms: _531  and  _533
REMARK  214  A    between atoms: _533  and  _534
REMARK  215  A    between atoms: _533  and  _536
REMARK  216  A    between atoms: _536  and  _537
REMARK  217  A    between atoms: _542  and  _544
REMARK  218  A    between atoms: _544  and  _545
REMARK  219  A    between atoms: _544  and  _547
REMARK  220  A    between atoms: _547  and  _548
REMARK  221  A    between atoms: _551  and  _553
REMARK  222  A    between atoms: _553  and  _554
REMARK  223  A    between atoms: _553  and  _556
REMARK  224  A    between atoms: _556  and  _557
REMARK  225  A    between atoms: _559  and  _561
REMARK  226  A    between atoms: _561  and  _562
REMARK  227  A    between atoms: _561  and  _564
REMARK  228  A    between atoms: _564  and  _565
REMARK  229  A    between atoms: _568  and  _570
REMARK  230  A    between atoms: _570  and  _571
REMARK  231  A    between atoms: _570  and  _573
REMARK  232  A    between atoms: _573  and  _574
REMARK  233  A    between atoms: _574  and  _575
REMARK  234  A    between atoms: _578  and  _580
REMARK  235  A    between atoms: _580  and  _581
REMARK  236  A    between atoms: _580  and  _583
REMARK  237  A    between atoms: _583  and  _584
REMARK  238  A    between atoms: _587  and  _589
REMARK  239  A    between atoms: _589  and  _590
REMARK  240  A    between atoms: _592  and  _594
REMARK  241  A    between atoms: _594  and  _595
REMARK  242  A    between atoms: _594  and  _597
REMARK  243  A    between atoms: _597  and  _598
REMARK  244  A    between atoms: _601  and  _603
REMARK  245  A    between atoms: _603  and  _604
REMARK  246  A    between atoms: _603  and  _606
REMARK  247  A    between atoms: _606  and  _607
REMARK  248  A    between atoms: _609  and  _611
REMARK  249  A    between atoms: _611  and  _612
REMARK  250  A    between atoms: _615  and  _617
REMARK  251  A    between atoms: _617  and  _618
REMARK  252  A    between atoms: _617  and  _620
REMARK  253  A    between atoms: _620  and  _621
REMARK  254  A    between atoms: _623  and  _625
REMARK  255  A    between atoms: _625  and  _626
REMARK                            x       y       z     vdW  Elec       q    Type
REMARK                         _______ _______ _______ _____ _____    ______ ____
ROOT
ATOM      1  O   HOH     1      27.536  40.654   3.144  0.00  0.00    +0.000 OA
ENDROOT
TORSDOF 0
REMARK  Name = ../refined-set-2016/4ryd/4ryd_pocket.pdb
REMARK  255 active torsions:
REMARK  status: ('A' for Active; 'I' for Inactive)
REMARK    1  A    between atoms: _1  and  _3
REMARK    2  A    between atoms: _3  and  _4
REMARK    3  A    between atoms: _3  and  _6
REMARK    4  A    between atoms: _6  and  _7
REMARK    5  A    between atoms: _10  and  _12
REMARK    6  A    between atoms: _12  and  _13
REMARK    7  A    between atoms: _12  and  _15
REMARK    8  A    between atoms: _15  and  _16
REMARK    9  A    between atoms: _19  and  _21
REMARK   10  A    between atoms: _21  and  _22
REMARK   11  A    between atoms: _24  and  _26
REMARK   12  A    between atoms: _26  and  _27
REMARK   13  A    between atoms: _26  and  _29
REMARK   14  A    between atoms: _29  and  _30
REMARK   15  A    between atoms: _35  and  _37
REMARK   16  A    between atoms: _37  and  _38
REMARK   17  A    between atoms: _37  and  _40
REMARK   18  A    between atoms: _40  and  _41
REMARK   19  A    between atoms: _41  and  _42
REMARK   20  A    between atoms: _42  and  _43
REMARK   21  A    between atoms: _52  and  _54
REMARK   22  A    between atoms: _54  and  _55
REMARK   23  A    between atoms: _54  and  _57
REMARK   24  A    between atoms: _57  and  _58
REMARK   25  A    between atoms: _61  and  _63
REMARK   26  A    between atoms: _63  and  _64
REMARK   27  A    between atoms: _63  and  _66
REMARK   28  A    between atoms: _66  and  _67
REMARK   29  A    between atoms: _72  and  _74
REMARK   30  A    between atoms: _74  and  _75
REMARK   31  A    between atoms: _74  and  _77
REMARK   32  A    between atoms: _77  and  _78
REMARK   33  A    between atoms: _81  and  _83
REMARK   34  A    between atoms: _83  and  _84
REMARK   35  A    between atoms: _83  and  _86
REMARK   36  A    between atoms: _86  and  _87
REMARK   37  A    between atoms: _92  and  _94
REMARK   38  A    between atoms: _94  and  _95
REMARK   39  A    between atoms: _94  and  _97
REMARK   40  A    between atoms: _97  and  _98
REMARK   41  A    between atoms: _98  and  _99
REMARK   42  A    between atoms: _99  and  _100
REMARK   43  A    between atoms: _109  and  _111
REMARK   44  A    between atoms: _111  and  _112
REMARK   45  A    between atoms: _111  and  _114
REMARK   46  A    between atoms: _114  and  _115
REMARK   47  A    between atoms: _120  and  _122
REMARK   48  A    between atoms: _122  and  _123
REMARK   49  A    between atoms: _125  and  _127
REMARK   50  A    between atoms: _127  and  _128
REMARK   51  A    between atoms: _127  and  _130
REMARK   52  A    between atoms: _130  and  _131
REMARK   53  A    between atoms: _134  and  _136
REMARK   54  A    between atoms: _136  and  _137
REMARK   55  A    between atoms: _136  and  _139
REMARK   56  A    between atoms: _141  and  _143
REMARK   57  A    between atoms: _143  and  _144
REMARK   58  A    between atoms: _143  and  _146
REMARK   59  A    between atoms: _146  and  _147
REMARK   60  A    between atoms: _147  and  _148
REMARK   61  A    between atoms: _148  and  _149
REMARK   62  A    between atoms: _158  and  _160
REMARK   63  A    between atoms: _160  and  _161
REMARK   64  A    between atoms: _160  and  _163
REMARK   65  A    between atoms: _163  and  _164
REMARK   66  A    between atoms: _164  and  _165
REMARK   67  A    between atoms: _167  and  _169
REMARK   68  A    between atoms: _169  and  _170
REMARK   69  A    between atoms: _169  and  _172
REMARK   70  A    between atoms: _172  and  _173
REMARK   71  A    between atoms: _176  and  _178
REMARK   72  A    between atoms: _178  and  _179
REMARK   73  A    between atoms: _178  and  _181
REMARK   74  A    between atoms: _181  and  _182
REMARK   75  A    between atoms: _185  and  _187
REMARK   76  A    between atoms: _187  and  _188
REMARK   77  A    between atoms: _190  and  _192
REMARK   78  A    between atoms: _192  and  _193
REMARK   79  A    between atoms: _192  and  _195
REMARK   80  A    between atoms: _195  and  _196
REMARK   81  A    between atoms: _196  and  _197
REMARK   82  A    between atoms: _200  and  _202
REMARK   83  A    between atoms: _202  and  _203
REMARK   84  A    between atoms: _202  and  _205
REMARK   85  A    between atoms: _208  and  _210
REMARK   86  A    between atoms: _210  and  _211
REMARK   87  A    between atoms: _210  and  _213
REMARK   88  A    between atoms: _213  and  _214
REMARK   89  A    between atoms: _217  and  _219
REMARK   90  A    between atoms: _219  and  _220
REMARK   91  A    between atoms: _219  and  _222
REMARK   92  A    between atoms: _222  and  _223
REMARK   93  A    between atoms: _226  and  _228
REMARK   94  A    between atoms: _228  and  _229
REMARK   95  A    between atoms: _232  and  _234
REMARK   96  A    between atoms: _234  and  _235
REMARK   97  A    between atoms: _234  and  _237
REMARK   98  A    between atoms: _240  and  _242
REMARK   99  A    between atoms: _242  and  _243
REMARK  100  A    between atoms: _242  and  _245
REMARK  101  A    between atoms: _245  and  _246
REMARK  102  A    between atoms: _246  and  _247
REMARK  103  A    between atoms: _250  and  _252
REMARK  104  A    between atoms: _252  and  _253
REMARK  105  A    between atoms: _256  and  _258
REMARK  106  A    between atoms: _258  and  _259
REMARK  107  A    between atoms: _262  and  _264
REMARK  108  A    between atoms: _264  and  _265
REMARK  109  A    between atoms: _264  and  _267
REMARK  110  A    between atoms: _267  and  _268
REMARK  111  A    between atoms: _270  and  _272
REMARK  112  A    between atoms: _272  and  _273
REMARK  113  A    between atoms: _272  and  _275
REMARK  114  A    between atoms: _275  and  _276
REMARK  115  A    between atoms: _286  and  _288
REMARK  116  A    between atoms: _288  and  _289
REMARK  117  A    between atoms: _292  and  _293
REMARK  118  A    between atoms: _298  and  _300
REMARK  119  A    between atoms: _300  and  _301
REMARK  120  A    between atoms: _300  and  _303
REMARK  121  A    between atoms: _303  and  _304
REMARK  122  A    between atoms: _304  and  _305
REMARK  123  A    between atoms: _308  and  _310
REMARK  124  A    between atoms: _310  and  _311
REMARK  125  A    between atoms: _310  and  _313
REMARK  126  A    between atoms: _313  and  _314
REMARK  127  A    between atoms: _317  and  _319
REMARK  128  A    between atoms: _319  and  _320
REMARK  129  A    between atoms: _319  and  _322
REMARK  130  A    between atoms: _322  and  _323
REMARK  131  A    between atoms: _326  and  _328
REMARK  132  A    between atoms: _328  and  _329
REMARK  133  A    between atoms: _328  and  _331
REMARK  134  A    between atoms: _331  and  _332
REMARK  135  A    between atoms: _335  and  _337
REMARK  136  A    between atoms: _337  and  _338
REMARK  137  A    between atoms: _337  and  _340
REMARK  138  A    between atoms: _343  and  _345
REMARK  139  A    between atoms: _345  and  _346
REMARK  140  A    between atoms: _345  and  _348
REMARK  141  A    between atoms: _348  and  _349
REMARK  142  A    between atoms: _352  and  _354
REMARK  143  A    between atoms: _354  and  _355
REMARK  144  A    between atoms: _358  and  _359
REMARK  145  A    between atoms: _364  and  _366
REMARK  146  A    between atoms: _366  and  _367
REMARK  147  A    between atoms: _370  and  _372
REMARK  148  A    between atoms: _372  and  _373
REMARK  149  A    between atoms: _372  and  _375
REMARK  150  A    between atoms: _375  and  _376
REMARK  151  A    between atoms: _376  and  _377
REMARK  152  A    between atoms: _377  and  _378
REMARK  153  A    between atoms: _387  and  _389
REMARK  154  A    between atoms: _389  and  _390
REMARK  155  A    between atoms: _389  and  _392
REMARK  156  A    between atoms: _392  and  _393
REMARK  157  A    between atoms: _396  and  _398
REMARK  158  A    between atoms: _398  and  _399
REMARK  159  A    between atoms: _402  and  _404
REMARK  160  A    between atoms: _404  and  _405
REMARK  161  A    between atoms: _404  and  _407
REMARK  162  A    between atoms: _407  and  _408
REMARK  163  A    between atoms: _408  and  _409
REMARK  164  A    between atoms: _412  and  _414
REMARK  165  A    between atoms: _414  and  _415
REMARK  166  A    between atoms: _414  and  _417
REMARK  167  A    between atoms: _417  and  _418
REMARK  168  A    between atoms: _428  and  _430
REMARK  169  A    between atoms: _430  and  _431
REMARK  170  A    between atoms: _434  and  _436
REMARK  171  A    between atoms: _436  and  _437
REMARK  172  A    between atoms: _436  and  _439
REMARK  173  A    between atoms: _439  and  _440
REMARK  174  A    between atoms: _442  and  _444
REMARK  175  A    between atoms: _444  and  _445
REMARK  176  A    between atoms: _447  and  _449
REMARK  177  A    between atoms: _449  and  _450
REMARK  178  A    between atoms: _449  and  _452
REMARK  179  A    between atoms: _452  and  _453
REMARK  180  A    between atoms: _458  and  _460
REMARK  181  A    between atoms: _460  and  _461
REMARK  182  A    between atoms: _463  and  _465
REMARK  183  A    between atoms: _465  and  _466
REMARK  184  A    between atoms: _465  and  _468
REMARK  185  A    between atoms: _468  and  _469
REMARK  186  A    between atoms: _469  and  _471
REMARK  187  A    between atoms: _471  and  CA_629
REMARK  188  A    between atoms: _472  and  _474
REMARK  189  A    between atoms: _474  and  _475
REMARK  190  A    between atoms: _474  and  _477
REMARK  191  A    between atoms: _477  and  _478
REMARK  192  A    between atoms: _480  and  _482
REMARK  193  A    between atoms: _482  and  _483
REMARK  194  A    between atoms: _482  and  _485
REMARK  195  A    between atoms: _487  and  _489
REMARK  196  A    between atoms: _489  and  _490
REMARK  197  A    between atoms: _489  and  _492
REMARK  198  A    between atoms: _494  and  _496
REMARK  199  A    between atoms: _496  and  _497
REMARK  200  A    between atoms: _496  and  _499
REMARK  201  A    between atoms: _499  and  _500
REMARK  202  A    between atoms: _503  and  _505
REMARK  203  A    between atoms: _505  and  _506
REMARK  204  A    between atoms: _508  and  _510
REMARK  205  A    between atoms: _510  and  _511
REMARK  206  A    between atoms: _510  and  _513
REMARK  207  A    between atoms: _513  and  _514
REMARK  208  A    between atoms: _519  and  _520
REMARK  209  A    between atoms: _522  and  _524
REMARK  210  A    between atoms: _524  and  _525
REMARK  211  A    between atoms: _524  and  _527
REMARK  212  A    between atoms: _527  and  _528
REMARK  213  A    between atoms: _531  and  _533
REMARK  214  A    between atoms: _533  and  _534
REMARK  215  A    between atoms: _533  and  _536
REMARK  216  A    between atoms: _536  and  _537
REMARK  217  A    between atoms: _542  and  _544
REMARK  218  A    between atoms: _544  and  _545
REMARK  219  A    between atoms: _544  and  _547
REMARK  220  A    between atoms: _547  and  _548
REMARK  221  A    between atoms: _551  and  _553
REMARK  222  A    between atoms: _553  and  _554
REMARK  223  A    between atoms: _553  and  _556
REMARK  224  A    between atoms: _556  and  _557
REMARK  225  A    between atoms: _559  and  _561
REMARK  226  A    between atoms: _561  and  _562
REMARK  227  A    between atoms: _561  and  _564
REMARK  228  A    between atoms: _564  and  _565
REMARK  229  A    between atoms: _568  and  _570
REMARK  230  A    between atoms: _570  and  _571
REMARK  231  A    between atoms: _570  and  _573
REMARK  232  A    between atoms: _573  and  _574
REMARK  233  A    between atoms: _574  and  _575
REMARK  234  A    between atoms: _578  and  _580
REMARK  235  A    between atoms: _580  and  _581
REMARK  236  A    between atoms: _580  and  _583
REMARK  237  A    between atoms: _583  and  _584
REMARK  238  A    between atoms: _587  and  _589
REMARK  239  A    between atoms: _589  and  _590
REMARK  240  A    between atoms: _592  and  _594
REMARK  241  A    between atoms: _594  and  _595
REMARK  242  A    between atoms: _594  and  _597
REMARK  243  A    between atoms: _597  and  _598
REMARK  244  A    between atoms: _601  and  _603
REMARK  245  A    between atoms: _603  and  _604
REMARK  246  A    between atoms: _603  and  _606
REMARK  247  A    between atoms: _606  and  _607
REMARK  248  A    between atoms: _609  and  _611
REMARK  249  A    between atoms: _611  and  _612
REMARK  250  A    between atoms: _615  and  _617
REMARK  251  A    between atoms: _617  and  _618
REMARK  252  A    between atoms: _617  and  _620
REMARK  253  A    between atoms: _620  and  _621
REMARK  254  A    between atoms: _623  and  _625
REMARK  255  A    between atoms: _625  and  _626
REMARK                            x       y       z     vdW  Elec       q    Type
REMARK                         _______ _______ _______ _____ _____    ______ ____
ROOT
ATOM      1  O   HOH     1      33.296  20.517  -1.545  0.00  0.00    +0.000 OA
ENDROOT
TORSDOF 0
REMARK  Name = ../refined-set-2016/4ryd/4ryd_pocket.pdb
REMARK  255 active torsions:
REMARK  status: ('A' for Active; 'I' for Inactive)
REMARK    1  A    between atoms: _1  and  _3
REMARK    2  A    between atoms: _3  and  _4
REMARK    3  A    between atoms: _3  and  _6
REMARK    4  A    between atoms: _6  and  _7
REMARK    5  A    between atoms: _10  and  _12
REMARK    6  A    between atoms: _12  and  _13
REMARK    7  A    between atoms: _12  and  _15
REMARK    8  A    between atoms: _15  and  _16
REMARK    9  A    between atoms: _19  and  _21
REMARK   10  A    between atoms: _21  and  _22
REMARK   11  A    between atoms: _24  and  _26
REMARK   12  A    between atoms: _26  and  _27
REMARK   13  A    between atoms: _26  and  _29
REMARK   14  A    between atoms: _29  and  _30
REMARK   15  A    between atoms: _35  and  _37
REMARK   16  A    between atoms: _37  and  _38
REMARK   17  A    between atoms: _37  and  _40
REMARK   18  A    between atoms: _40  and  _41
REMARK   19  A    between atoms: _41  and  _42
REMARK   20  A    between atoms: _42  and  _43
REMARK   21  A    between atoms: _52  and  _54
REMARK   22  A    between atoms: _54  and  _55
REMARK   23  A    between atoms: _54  and  _57
REMARK   24  A    between atoms: _57  and  _58
REMARK   25  A    between atoms: _61  and  _63
REMARK   26  A    between atoms: _63  and  _64
REMARK   27  A    between atoms: _63  and  _66
REMARK   28  A    between atoms: _66  and  _67
REMARK   29  A    between atoms: _72  and  _74
REMARK   30  A    between atoms: _74  and  _75
REMARK   31  A    between atoms: _74  and  _77
REMARK   32  A    between atoms: _77  and  _78
REMARK   33  A    between atoms: _81  and  _83
REMARK   34  A    between atoms: _83  and  _84
REMARK   35  A    between atoms: _83  and  _86
REMARK   36  A    between atoms: _86  and  _87
REMARK   37  A    between atoms: _92  and  _94
REMARK   38  A    between atoms: _94  and  _95
REMARK   39  A    between atoms: _94  and  _97
REMARK   40  A    between atoms: _97  and  _98
REMARK   41  A    between atoms: _98  and  _99
REMARK   42  A    between atoms: _99  and  _100
REMARK   43  A    between atoms: _109  and  _111
REMARK   44  A    between atoms: _111  and  _112
REMARK   45  A    between atoms: _111  and  _114
REMARK   46  A    between atoms: _114  and  _115
REMARK   47  A    between atoms: _120  and  _122
REMARK   48  A    between atoms: _122  and  _123
REMARK   49  A    between atoms: _125  and  _127
REMARK   50  A    between atoms: _127  and  _128
REMARK   51  A    between atoms: _127  and  _130
REMARK   52  A    between atoms: _130  and  _131
REMARK   53  A    between atoms: _134  and  _136
REMARK   54  A    between atoms: _136  and  _137
REMARK   55  A    between atoms: _136  and  _139
REMARK   56  A    between atoms: _141  and  _143
REMARK   57  A    between atoms: _143  and  _144
REMARK   58  A    between atoms: _143  and  _146
REMARK   59  A    between atoms: _146  and  _147
REMARK   60  A    between atoms: _147  and  _148
REMARK   61  A    between atoms: _148  and  _149
REMARK   62  A    between atoms: _158  and  _160
REMARK   63  A    between atoms: _160  and  _161
REMARK   64  A    between atoms: _160  and  _163
REMARK   65  A    between atoms: _163  and  _164
REMARK   66  A    between atoms: _164  and  _165
REMARK   67  A    between atoms: _167  and  _169
REMARK   68  A    between atoms: _169  and  _170
REMARK   69  A    between atoms: _169  and  _172
REMARK   70  A    between atoms: _172  and  _173
REMARK   71  A    between atoms: _176  and  _178
REMARK   72  A    between atoms: _178  and  _179
REMARK   73  A    between atoms: _178  and  _181
REMARK   74  A    between atoms: _181  and  _182
REMARK   75  A    between atoms: _185  and  _187
REMARK   76  A    between atoms: _187  and  _188
REMARK   77  A    between atoms: _190  and  _192
REMARK   78  A    between atoms: _192  and  _193
REMARK   79  A    between atoms: _192  and  _195
REMARK   80  A    between atoms: _195  and  _196
REMARK   81  A    between atoms: _196  and  _197
REMARK   82  A    between atoms: _200  and  _202
REMARK   83  A    between atoms: _202  and  _203
REMARK   84  A    between atoms: _202  and  _205
REMARK   85  A    between atoms: _208  and  _210
REMARK   86  A    between atoms: _210  and  _211
REMARK   87  A    between atoms: _210  and  _213
REMARK   88  A    between atoms: _213  and  _214
REMARK   89  A    between atoms: _217  and  _219
REMARK   90  A    between atoms: _219  and  _220
REMARK   91  A    between atoms: _219  and  _222
REMARK   92  A    between atoms: _222  and  _223
REMARK   93  A    between atoms: _226  and  _228
REMARK   94  A    between atoms: _228  and  _229
REMARK   95  A    between atoms: _232  and  _234
REMARK   96  A    between atoms: _234  and  _235
REMARK   97  A    between atoms: _234  and  _237
REMARK   98  A    between atoms: _240  and  _242
REMARK   99  A    between atoms: _242  and  _243
REMARK  100  A    between atoms: _242  and  _245
REMARK  101  A    between atoms: _245  and  _246
REMARK  102  A    between atoms: _246  and  _247
REMARK  103  A    between atoms: _250  and  _252
REMARK  104  A    between atoms: _252  and  _253
REMARK  105  A    between atoms: _256  and  _258
REMARK  106  A    between atoms: _258  and  _259
REMARK  107  A    between atoms: _262  and  _264
REMARK  108  A    between atoms: _264  and  _265
REMARK  109  A    between atoms: _264  and  _267
REMARK  110  A    between atoms: _267  and  _268
REMARK  111  A    between atoms: _270  and  _272
REMARK  112  A    between atoms: _272  and  _273
REMARK  113  A    between atoms: _272  and  _275
REMARK  114  A    between atoms: _275  and  _276
REMARK  115  A    between atoms: _286  and  _288
REMARK  116  A    between atoms: _288  and  _289
REMARK  117  A    between atoms: _292  and  _293
REMARK  118  A    between atoms: _298  and  _300
REMARK  119  A    between atoms: _300  and  _301
REMARK  120  A    between atoms: _300  and  _303
REMARK  121  A    between atoms: _303  and  _304
REMARK  122  A    between atoms: _304  and  _305
REMARK  123  A    between atoms: _308  and  _310
REMARK  124  A    between atoms: _310  and  _311
REMARK  125  A    between atoms: _310  and  _313
REMARK  126  A    between atoms: _313  and  _314
REMARK  127  A    between atoms: _317  and  _319
REMARK  128  A    between atoms: _319  and  _320
REMARK  129  A    between atoms: _319  and  _322
REMARK  130  A    between atoms: _322  and  _323
REMARK  131  A    between atoms: _326  and  _328
REMARK  132  A    between atoms: _328  and  _329
REMARK  133  A    between atoms: _328  and  _331
REMARK  134  A    between atoms: _331  and  _332
REMARK  135  A    between atoms: _335  and  _337
REMARK  136  A    between atoms: _337  and  _338
REMARK  137  A    between atoms: _337  and  _340
REMARK  138  A    between atoms: _343  and  _345
REMARK  139  A    between atoms: _345  and  _346
REMARK  140  A    between atoms: _345  and  _348
REMARK  141  A    between atoms: _348  and  _349
REMARK  142  A    between atoms: _352  and  _354
REMARK  143  A    between atoms: _354  and  _355
REMARK  144  A    between atoms: _358  and  _359
REMARK  145  A    between atoms: _364  and  _366
REMARK  146  A    between atoms: _366  and  _367
REMARK  147  A    between atoms: _370  and  _372
REMARK  148  A    between atoms: _372  and  _373
REMARK  149  A    between atoms: _372  and  _375
REMARK  150  A    between atoms: _375  and  _376
REMARK  151  A    between atoms: _376  and  _377
REMARK  152  A    between atoms: _377  and  _378
REMARK  153  A    between atoms: _387  and  _389
REMARK  154  A    between atoms: _389  and  _390
REMARK  155  A    between atoms: _389  and  _392
REMARK  156  A    between atoms: _392  and  _393
REMARK  157  A    between atoms: _396  and  _398
REMARK  158  A    between atoms: _398  and  _399
REMARK  159  A    between atoms: _402  and  _404
REMARK  160  A    between atoms: _404  and  _405
REMARK  161  A    between atoms: _404  and  _407
REMARK  162  A    between atoms: _407  and  _408
REMARK  163  A    between atoms: _408  and  _409
REMARK  164  A    between atoms: _412  and  _414
REMARK  165  A    between atoms: _414  and  _415
REMARK  166  A    between atoms: _414  and  _417
REMARK  167  A    between atoms: _417  and  _418
REMARK  168  A    between atoms: _428  and  _430
REMARK  169  A    between atoms: _430  and  _431
REMARK  170  A    between atoms: _434  and  _436
REMARK  171  A    between atoms: _436  and  _437
REMARK  172  A    between atoms: _436  and  _439
REMARK  173  A    between atoms: _439  and  _440
REMARK  174  A    between atoms: _442  and  _444
REMARK  175  A    between atoms: _444  and  _445
REMARK  176  A    between atoms: _447  and  _449
REMARK  177  A    between atoms: _449  and  _450
REMARK  178  A    between atoms: _449  and  _452
REMARK  179  A    between atoms: _452  and  _453
REMARK  180  A    between atoms: _458  and  _460
REMARK  181  A    between atoms: _460  and  _461
REMARK  182  A    between atoms: _463  and  _465
REMARK  183  A    between atoms: _465  and  _466
REMARK  184  A    between atoms: _465  and  _468
REMARK  185  A    between atoms: _468  and  _469
REMARK  186  A    between atoms: _469  and  _471
REMARK  187  A    between atoms: _471  and  CA_629
REMARK  188  A    between atoms: _472  and  _474
REMARK  189  A    between atoms: _474  and  _475
REMARK  190  A    between atoms: _474  and  _477
REMARK  191  A    between atoms: _477  and  _478
REMARK  192  A    between atoms: _480  and  _482
REMARK  193  A    between atoms: _482  and  _483
REMARK  194  A    between atoms: _482  and  _485
REMARK  195  A    between atoms: _487  and  _489
REMARK  196  A    between atoms: _489  and  _490
REMARK  197  A    between atoms: _489  and  _492
REMARK  198  A    between atoms: _494  and  _496
REMARK  199  A    between atoms: _496  and  _497
REMARK  200  A    between atoms: _496  and  _499
REMARK  201  A    between atoms: _499  and  _500
REMARK  202  A    between atoms: _503  and  _505
REMARK  203  A    between atoms: _505  and  _506
REMARK  204  A    between atoms: _508  and  _510
REMARK  205  A    between atoms: _510  and  _511
REMARK  206  A    between atoms: _510  and  _513
REMARK  207  A    between atoms: _513  and  _514
REMARK  208  A    between atoms: _519  and  _520
REMARK  209  A    between atoms: _522  and  _524
REMARK  210  A    between atoms: _524  and  _525
REMARK  211  A    between atoms: _524  and  _527
REMARK  212  A    between atoms: _527  and  _528
REMARK  213  A    between atoms: _531  and  _533
REMARK  214  A    between atoms: _533  and  _534
REMARK  215  A    between atoms: _533  and  _536
REMARK  216  A    between atoms: _536  and  _537
REMARK  217  A    between atoms: _542  and  _544
REMARK  218  A    between atoms: _544  and  _545
REMARK  219  A    between atoms: _544  and  _547
REMARK  220  A    between atoms: _547  and  _548
REMARK  221  A    between atoms: _551  and  _553
REMARK  222  A    between atoms: _553  and  _554
REMARK  223  A    between atoms: _553  and  _556
REMARK  224  A    between atoms: _556  and  _557
REMARK  225  A    between atoms: _559  and  _561
REMARK  226  A    between atoms: _561  and  _562
REMARK  227  A    between atoms: _561  and  _564
REMARK  228  A    between atoms: _564  and  _565
REMARK  229  A    between atoms: _568  and  _570
REMARK  230  A    between atoms: _570  and  _571
REMARK  231  A    between atoms: _570  and  _573
REMARK  232  A    between atoms: _573  and  _574
REMARK  233  A    between atoms: _574  and  _575
REMARK  234  A    between atoms: _578  and  _580
REMARK  235  A    between atoms: _580  and  _581
REMARK  236  A    between atoms: _580  and  _583
REMARK  237  A    between atoms: _583  and  _584
REMARK  238  A    between atoms: _587  and  _589
REMARK  239  A    between atoms: _589  and  _590
REMARK  240  A    between atoms: _592  and  _594
REMARK  241  A    between atoms: _594  and  _595
REMARK  242  A    between atoms: _594  and  _597
REMARK  243  A    between atoms: _597  and  _598
REMARK  244  A    between atoms: _601  and  _603
REMARK  245  A    between atoms: _603  and  _604
REMARK  246  A    between atoms: _603  and  _606
REMARK  247  A    between atoms: _606  and  _607
REMARK  248  A    between atoms: _609  and  _611
REMARK  249  A    between atoms: _611  and  _612
REMARK  250  A    between atoms: _615  and  _617
REMARK  251  A    between atoms: _617  and  _618
REMARK  252  A    between atoms: _617  and  _620
REMARK  253  A    between atoms: _620  and  _621
REMARK  254  A    between atoms: _623  and  _625
REMARK  255  A    between atoms: _625  and  _626
REMARK                            x       y       z     vdW  Elec       q    Type
REMARK                         _______ _______ _______ _____ _____    ______ ____
ROOT
ATOM      1  O   HOH     1      24.394  31.827   2.915  0.00  0.00    +0.000 OA
ENDROOT
TORSDOF 0
REMARK  Name = ../refined-set-2016/4ryd/4ryd_pocket.pdb
REMARK  255 active torsions:
REMARK  status: ('A' for Active; 'I' for Inactive)
REMARK    1  A    between atoms: _1  and  _3
REMARK    2  A    between atoms: _3  and  _4
REMARK    3  A    between atoms: _3  and  _6
REMARK    4  A    between atoms: _6  and  _7
REMARK    5  A    between atoms: _10  and  _12
REMARK    6  A    between atoms: _12  and  _13
REMARK    7  A    between atoms: _12  and  _15
REMARK    8  A    between atoms: _15  and  _16
REMARK    9  A    between atoms: _19  and  _21
REMARK   10  A    between atoms: _21  and  _22
REMARK   11  A    between atoms: _24  and  _26
REMARK   12  A    between atoms: _26  and  _27
REMARK   13  A    between atoms: _26  and  _29
REMARK   14  A    between atoms: _29  and  _30
REMARK   15  A    between atoms: _35  and  _37
REMARK   16  A    between atoms: _37  and  _38
REMARK   17  A    between atoms: _37  and  _40
REMARK   18  A    between atoms: _40  and  _41
REMARK   19  A    between atoms: _41  and  _42
REMARK   20  A    between atoms: _42  and  _43
REMARK   21  A    between atoms: _52  and  _54
REMARK   22  A    between atoms: _54  and  _55
REMARK   23  A    between atoms: _54  and  _57
REMARK   24  A    between atoms: _57  and  _58
REMARK   25  A    between atoms: _61  and  _63
REMARK   26  A    between atoms: _63  and  _64
REMARK   27  A    between atoms: _63  and  _66
REMARK   28  A    between atoms: _66  and  _67
REMARK   29  A    between atoms: _72  and  _74
REMARK   30  A    between atoms: _74  and  _75
REMARK   31  A    between atoms: _74  and  _77
REMARK   32  A    between atoms: _77  and  _78
REMARK   33  A    between atoms: _81  and  _83
REMARK   34  A    between atoms: _83  and  _84
REMARK   35  A    between atoms: _83  and  _86
REMARK   36  A    between atoms: _86  and  _87
REMARK   37  A    between atoms: _92  and  _94
REMARK   38  A    between atoms: _94  and  _95
REMARK   39  A    between atoms: _94  and  _97
REMARK   40  A    between atoms: _97  and  _98
REMARK   41  A    between atoms: _98  and  _99
REMARK   42  A    between atoms: _99  and  _100
REMARK   43  A    between atoms: _109  and  _111
REMARK   44  A    between atoms: _111  and  _112
REMARK   45  A    between atoms: _111  and  _114
REMARK   46  A    between atoms: _114  and  _115
REMARK   47  A    between atoms: _120  and  _122
REMARK   48  A    between atoms: _122  and  _123
REMARK   49  A    between atoms: _125  and  _127
REMARK   50  A    between atoms: _127  and  _128
REMARK   51  A    between atoms: _127  and  _130
REMARK   52  A    between atoms: _130  and  _131
REMARK   53  A    between atoms: _134  and  _136
REMARK   54  A    between atoms: _136  and  _137
REMARK   55  A    between atoms: _136  and  _139
REMARK   56  A    between atoms: _141  and  _143
REMARK   57  A    between atoms: _143  and  _144
REMARK   58  A    between atoms: _143  and  _146
REMARK   59  A    between atoms: _146  and  _147
REMARK   60  A    between atoms: _147  and  _148
REMARK   61  A    between atoms: _148  and  _149
REMARK   62  A    between atoms: _158  and  _160
REMARK   63  A    between atoms: _160  and  _161
REMARK   64  A    between atoms: _160  and  _163
REMARK   65  A    between atoms: _163  and  _164
REMARK   66  A    between atoms: _164  and  _165
REMARK   67  A    between atoms: _167  and  _169
REMARK   68  A    between atoms: _169  and  _170
REMARK   69  A    between atoms: _169  and  _172
REMARK   70  A    between atoms: _172  and  _173
REMARK   71  A    between atoms: _176  and  _178
REMARK   72  A    between atoms: _178  and  _179
REMARK   73  A    between atoms: _178  and  _181
REMARK   74  A    between atoms: _181  and  _182
REMARK   75  A    between atoms: _185  and  _187
REMARK   76  A    between atoms: _187  and  _188
REMARK   77  A    between atoms: _190  and  _192
REMARK   78  A    between atoms: _192  and  _193
REMARK   79  A    between atoms: _192  and  _195
REMARK   80  A    between atoms: _195  and  _196
REMARK   81  A    between atoms: _196  and  _197
REMARK   82  A    between atoms: _200  and  _202
REMARK   83  A    between atoms: _202  and  _203
REMARK   84  A    between atoms: _202  and  _205
REMARK   85  A    between atoms: _208  and  _210
REMARK   86  A    between atoms: _210  and  _211
REMARK   87  A    between atoms: _210  and  _213
REMARK   88  A    between atoms: _213  and  _214
REMARK   89  A    between atoms: _217  and  _219
REMARK   90  A    between atoms: _219  and  _220
REMARK   91  A    between atoms: _219  and  _222
REMARK   92  A    between atoms: _222  and  _223
REMARK   93  A    between atoms: _226  and  _228
REMARK   94  A    between atoms: _228  and  _229
REMARK   95  A    between atoms: _232  and  _234
REMARK   96  A    between atoms: _234  and  _235
REMARK   97  A    between atoms: _234  and  _237
REMARK   98  A    between atoms: _240  and  _242
REMARK   99  A    between atoms: _242  and  _243
REMARK  100  A    between atoms: _242  and  _245
REMARK  101  A    between atoms: _245  and  _246
REMARK  102  A    between atoms: _246  and  _247
REMARK  103  A    between atoms: _250  and  _252
REMARK  104  A    between atoms: _252  and  _253
REMARK  105  A    between atoms: _256  and  _258
REMARK  106  A    between atoms: _258  and  _259
REMARK  107  A    between atoms: _262  and  _264
REMARK  108  A    between atoms: _264  and  _265
REMARK  109  A    between atoms: _264  and  _267
REMARK  110  A    between atoms: _267  and  _268
REMARK  111  A    between atoms: _270  and  _272
REMARK  112  A    between atoms: _272  and  _273
REMARK  113  A    between atoms: _272  and  _275
REMARK  114  A    between atoms: _275  and  _276
REMARK  115  A    between atoms: _286  and  _288
REMARK  116  A    between atoms: _288  and  _289
REMARK  117  A    between atoms: _292  and  _293
REMARK  118  A    between atoms: _298  and  _300
REMARK  119  A    between atoms: _300  and  _301
REMARK  120  A    between atoms: _300  and  _303
REMARK  121  A    between atoms: _303  and  _304
REMARK  122  A    between atoms: _304  and  _305
REMARK  123  A    between atoms: _308  and  _310
REMARK  124  A    between atoms: _310  and  _311
REMARK  125  A    between atoms: _310  and  _313
REMARK  126  A    between atoms: _313  and  _314
REMARK  127  A    between atoms: _317  and  _319
REMARK  128  A    between atoms: _319  and  _320
REMARK  129  A    between atoms: _319  and  _322
REMARK  130  A    between atoms: _322  and  _323
REMARK  131  A    between atoms: _326  and  _328
REMARK  132  A    between atoms: _328  and  _329
REMARK  133  A    between atoms: _328  and  _331
REMARK  134  A    between atoms: _331  and  _332
REMARK  135  A    between atoms: _335  and  _337
REMARK  136  A    between atoms: _337  and  _338
REMARK  137  A    between atoms: _337  and  _340
REMARK  138  A    between atoms: _343  and  _345
REMARK  139  A    between atoms: _345  and  _346
REMARK  140  A    between atoms: _345  and  _348
REMARK  141  A    between atoms: _348  and  _349
REMARK  142  A    between atoms: _352  and  _354
REMARK  143  A    between atoms: _354  and  _355
REMARK  144  A    between atoms: _358  and  _359
REMARK  145  A    between atoms: _364  and  _366
REMARK  146  A    between atoms: _366  and  _367
REMARK  147  A    between atoms: _370  and  _372
REMARK  148  A    between atoms: _372  and  _373
REMARK  149  A    between atoms: _372  and  _375
REMARK  150  A    between atoms: _375  and  _376
REMARK  151  A    between atoms: _376  and  _377
REMARK  152  A    between atoms: _377  and  _378
REMARK  153  A    between atoms: _387  and  _389
REMARK  154  A    between atoms: _389  and  _390
REMARK  155  A    between atoms: _389  and  _392
REMARK  156  A    between atoms: _392  and  _393
REMARK  157  A    between atoms: _396  and  _398
REMARK  158  A    between atoms: _398  and  _399
REMARK  159  A    between atoms: _402  and  _404
REMARK  160  A    between atoms: _404  and  _405
REMARK  161  A    between atoms: _404  and  _407
REMARK  162  A    between atoms: _407  and  _408
REMARK  163  A    between atoms: _408  and  _409
REMARK  164  A    between atoms: _412  and  _414
REMARK  165  A    between atoms: _414  and  _415
REMARK  166  A    between atoms: _414  and  _417
REMARK  167  A    between atoms: _417  and  _418
REMARK  168  A    between atoms: _428  and  _430
REMARK  169  A    between atoms: _430  and  _431
REMARK  170  A    between atoms: _434  and  _436
REMARK  171  A    between atoms: _436  and  _437
REMARK  172  A    between atoms: _436  and  _439
REMARK  173  A    between atoms: _439  and  _440
REMARK  174  A    between atoms: _442  and  _444
REMARK  175  A    between atoms: _444  and  _445
REMARK  176  A    between atoms: _447  and  _449
REMARK  177  A    between atoms: _449  and  _450
REMARK  178  A    between atoms: _449  and  _452
REMARK  179  A    between atoms: _452  and  _453
REMARK  180  A    between atoms: _458  and  _460
REMARK  181  A    between atoms: _460  and  _461
REMARK  182  A    between atoms: _463  and  _465
REMARK  183  A    between atoms: _465  and  _466
REMARK  184  A    between atoms: _465  and  _468
REMARK  185  A    between atoms: _468  and  _469
REMARK  186  A    between atoms: _469  and  _471
REMARK  187  A    between atoms: _471  and  CA_629
REMARK  188  A    between atoms: _472  and  _474
REMARK  189  A    between atoms: _474  and  _475
REMARK  190  A    between atoms: _474  and  _477
REMARK  191  A    between atoms: _477  and  _478
REMARK  192  A    between atoms: _480  and  _482
REMARK  193  A    between atoms: _482  and  _483
REMARK  194  A    between atoms: _482  and  _485
REMARK  195  A    between atoms: _487  and  _489
REMARK  196  A    between atoms: _489  and  _490
REMARK  197  A    between atoms: _489  and  _492
REMARK  198  A    between atoms: _494  and  _496
REMARK  199  A    between atoms: _496  and  _497
REMARK  200  A    between atoms: _496  and  _499
REMARK  201  A    between atoms: _499  and  _500
REMARK  202  A    between atoms: _503  and  _505
REMARK  203  A    between atoms: _505  and  _506
REMARK  204  A    between atoms: _508  and  _510
REMARK  205  A    between atoms: _510  and  _511
REMARK  206  A    between atoms: _510  and  _513
REMARK  207  A    between atoms: _513  and  _514
REMARK  208  A    between atoms: _519  and  _520
REMARK  209  A    between atoms: _522  and  _524
REMARK  210  A    between atoms: _524  and  _525
REMARK  211  A    between atoms: _524  and  _527
REMARK  212  A    between atoms: _527  and  _528
REMARK  213  A    between atoms: _531  and  _533
REMARK  214  A    between atoms: _533  and  _534
REMARK  215  A    between atoms: _533  and  _536
REMARK  216  A    between atoms: _536  and  _537
REMARK  217  A    between atoms: _542  and  _544
REMARK  218  A    between atoms: _544  and  _545
REMARK  219  A    between atoms: _544  and  _547
REMARK  220  A    between atoms: _547  and  _548
REMARK  221  A    between atoms: _551  and  _553
REMARK  222  A    between atoms: _553  and  _554
REMARK  223  A    between atoms: _553  and  _556
REMARK  224  A    between atoms: _556  and  _557
REMARK  225  A    between atoms: _559  and  _561
REMARK  226  A    between atoms: _561  and  _562
REMARK  227  A    between atoms: _561  and  _564
REMARK  228  A    between atoms: _564  and  _565
REMARK  229  A    between atoms: _568  and  _570
REMARK  230  A    between atoms: _570  and  _571
REMARK  231  A    between atoms: _570  and  _573
REMARK  232  A    between atoms: _573  and  _574
REMARK  233  A    between atoms: _574  and  _575
REMARK  234  A    between atoms: _578  and  _580
REMARK  235  A    between atoms: _580  and  _581
REMARK  236  A    between atoms: _580  and  _583
REMARK  237  A    between atoms: _583  and  _584
REMARK  238  A    between atoms: _587  and  _589
REMARK  239  A    between atoms: _589  and  _590
REMARK  240  A    between atoms: _592  and  _594
REMARK  241  A    between atoms: _594  and  _595
REMARK  242  A    between atoms: _594  and  _597
REMARK  243  A    between atoms: _597  and  _598
REMARK  244  A    between atoms: _601  and  _603
REMARK  245  A    between atoms: _603  and  _604
REMARK  246  A    between atoms: _603  and  _606
REMARK  247  A    between atoms: _606  and  _607
REMARK  248  A    between atoms: _609  and  _611
REMARK  249  A    between atoms: _611  and  _612
REMARK  250  A    between atoms: _615  and  _617
REMARK  251  A    between atoms: _617  and  _618
REMARK  252  A    between atoms: _617  and  _620
REMARK  253  A    between atoms: _620  and  _621
REMARK  254  A    between atoms: _623  and  _625
REMARK  255  A    between atoms: _625  and  _626
REMARK                            x       y       z     vdW  Elec       q    Type
REMARK                         _______ _______ _______ _____ _____    ______ ____
ROOT
ATOM      1  O   HOH     1      33.328  39.888   1.036  0.00  0.00    +0.000 OA
ENDROOT
TORSDOF 0
REMARK  Name = ../refined-set-2016/4ryd/4ryd_pocket.pdb
REMARK  255 active torsions:
REMARK  status: ('A' for Active; 'I' for Inactive)
REMARK    1  A    between atoms: _1  and  _3
REMARK    2  A    between atoms: _3  and  _4
REMARK    3  A    between atoms: _3  and  _6
REMARK    4  A    between atoms: _6  and  _7
REMARK    5  A    between atoms: _10  and  _12
REMARK    6  A    between atoms: _12  and  _13
REMARK    7  A    between atoms: _12  and  _15
REMARK    8  A    between atoms: _15  and  _16
REMARK    9  A    between atoms: _19  and  _21
REMARK   10  A    between atoms: _21  and  _22
REMARK   11  A    between atoms: _24  and  _26
REMARK   12  A    between atoms: _26  and  _27
REMARK   13  A    between atoms: _26  and  _29
REMARK   14  A    between atoms: _29  and  _30
REMARK   15  A    between atoms: _35  and  _37
REMARK   16  A    between atoms: _37  and  _38
REMARK   17  A    between atoms: _37  and  _40
REMARK   18  A    between atoms: _40  and  _41
REMARK   19  A    between atoms: _41  and  _42
REMARK   20  A    between atoms: _42  and  _43
REMARK   21  A    between atoms: _52  and  _54
REMARK   22  A    between atoms: _54  and  _55
REMARK   23  A    between atoms: _54  and  _57
REMARK   24  A    between atoms: _57  and  _58
REMARK   25  A    between atoms: _61  and  _63
REMARK   26  A    between atoms: _63  and  _64
REMARK   27  A    between atoms: _63  and  _66
REMARK   28  A    between atoms: _66  and  _67
REMARK   29  A    between atoms: _72  and  _74
REMARK   30  A    between atoms: _74  and  _75
REMARK   31  A    between atoms: _74  and  _77
REMARK   32  A    between atoms: _77  and  _78
REMARK   33  A    between atoms: _81  and  _83
REMARK   34  A    between atoms: _83  and  _84
REMARK   35  A    between atoms: _83  and  _86
REMARK   36  A    between atoms: _86  and  _87
REMARK   37  A    between atoms: _92  and  _94
REMARK   38  A    between atoms: _94  and  _95
REMARK   39  A    between atoms: _94  and  _97
REMARK   40  A    between atoms: _97  and  _98
REMARK   41  A    between atoms: _98  and  _99
REMARK   42  A    between atoms: _99  and  _100
REMARK   43  A    between atoms: _109  and  _111
REMARK   44  A    between atoms: _111  and  _112
REMARK   45  A    between atoms: _111  and  _114
REMARK   46  A    between atoms: _114  and  _115
REMARK   47  A    between atoms: _120  and  _122
REMARK   48  A    between atoms: _122  and  _123
REMARK   49  A    between atoms: _125  and  _127
REMARK   50  A    between atoms: _127  and  _128
REMARK   51  A    between atoms: _127  and  _130
REMARK   52  A    between atoms: _130  and  _131
REMARK   53  A    between atoms: _134  and  _136
REMARK   54  A    between atoms: _136  and  _137
REMARK   55  A    between atoms: _136  and  _139
REMARK   56  A    between atoms: _141  and  _143
REMARK   57  A    between atoms: _143  and  _144
REMARK   58  A    between atoms: _143  and  _146
REMARK   59  A    between atoms: _146  and  _147
REMARK   60  A    between atoms: _147  and  _148
REMARK   61  A    between atoms: _148  and  _149
REMARK   62  A    between atoms: _158  and  _160
REMARK   63  A    between atoms: _160  and  _161
REMARK   64  A    between atoms: _160  and  _163
REMARK   65  A    between atoms: _163  and  _164
REMARK   66  A    between atoms: _164  and  _165
REMARK   67  A    between atoms: _167  and  _169
REMARK   68  A    between atoms: _169  and  _170
REMARK   69  A    between atoms: _169  and  _172
REMARK   70  A    between atoms: _172  and  _173
REMARK   71  A    between atoms: _176  and  _178
REMARK   72  A    between atoms: _178  and  _179
REMARK   73  A    between atoms: _178  and  _181
REMARK   74  A    between atoms: _181  and  _182
REMARK   75  A    between atoms: _185  and  _187
REMARK   76  A    between atoms: _187  and  _188
REMARK   77  A    between atoms: _190  and  _192
REMARK   78  A    between atoms: _192  and  _193
REMARK   79  A    between atoms: _192  and  _195
REMARK   80  A    between atoms: _195  and  _196
REMARK   81  A    between atoms: _196  and  _197
REMARK   82  A    between atoms: _200  and  _202
REMARK   83  A    between atoms: _202  and  _203
REMARK   84  A    between atoms: _202  and  _205
REMARK   85  A    between atoms: _208  and  _210
REMARK   86  A    between atoms: _210  and  _211
REMARK   87  A    between atoms: _210  and  _213
REMARK   88  A    between atoms: _213  and  _214
REMARK   89  A    between atoms: _217  and  _219
REMARK   90  A    between atoms: _219  and  _220
REMARK   91  A    between atoms: _219  and  _222
REMARK   92  A    between atoms: _222  and  _223
REMARK   93  A    between atoms: _226  and  _228
REMARK   94  A    between atoms: _228  and  _229
REMARK   95  A    between atoms: _232  and  _234
REMARK   96  A    between atoms: _234  and  _235
REMARK   97  A    between atoms: _234  and  _237
REMARK   98  A    between atoms: _240  and  _242
REMARK   99  A    between atoms: _242  and  _243
REMARK  100  A    between atoms: _242  and  _245
REMARK  101  A    between atoms: _245  and  _246
REMARK  102  A    between atoms: _246  and  _247
REMARK  103  A    between atoms: _250  and  _252
REMARK  104  A    between atoms: _252  and  _253
REMARK  105  A    between atoms: _256  and  _258
REMARK  106  A    between atoms: _258  and  _259
REMARK  107  A    between atoms: _262  and  _264
REMARK  108  A    between atoms: _264  and  _265
REMARK  109  A    between atoms: _264  and  _267
REMARK  110  A    between atoms: _267  and  _268
REMARK  111  A    between atoms: _270  and  _272
REMARK  112  A    between atoms: _272  and  _273
REMARK  113  A    between atoms: _272  and  _275
REMARK  114  A    between atoms: _275  and  _276
REMARK  115  A    between atoms: _286  and  _288
REMARK  116  A    between atoms: _288  and  _289
REMARK  117  A    between atoms: _292  and  _293
REMARK  118  A    between atoms: _298  and  _300
REMARK  119  A    between atoms: _300  and  _301
REMARK  120  A    between atoms: _300  and  _303
REMARK  121  A    between atoms: _303  and  _304
REMARK  122  A    between atoms: _304  and  _305
REMARK  123  A    between atoms: _308  and  _310
REMARK  124  A    between atoms: _310  and  _311
REMARK  125  A    between atoms: _310  and  _313
REMARK  126  A    between atoms: _313  and  _314
REMARK  127  A    between atoms: _317  and  _319
REMARK  128  A    between atoms: _319  and  _320
REMARK  129  A    between atoms: _319  and  _322
REMARK  130  A    between atoms: _322  and  _323
REMARK  131  A    between atoms: _326  and  _328
REMARK  132  A    between atoms: _328  and  _329
REMARK  133  A    between atoms: _328  and  _331
REMARK  134  A    between atoms: _331  and  _332
REMARK  135  A    between atoms: _335  and  _337
REMARK  136  A    between atoms: _337  and  _338
REMARK  137  A    between atoms: _337  and  _340
REMARK  138  A    between atoms: _343  and  _345
REMARK  139  A    between atoms: _345  and  _346
REMARK  140  A    between atoms: _345  and  _348
REMARK  141  A    between atoms: _348  and  _349
REMARK  142  A    between atoms: _352  and  _354
REMARK  143  A    between atoms: _354  and  _355
REMARK  144  A    between atoms: _358  and  _359
REMARK  145  A    between atoms: _364  and  _366
REMARK  146  A    between atoms: _366  and  _367
REMARK  147  A    between atoms: _370  and  _372
REMARK  148  A    between atoms: _372  and  _373
REMARK  149  A    between atoms: _372  and  _375
REMARK  150  A    between atoms: _375  and  _376
REMARK  151  A    between atoms: _376  and  _377
REMARK  152  A    between atoms: _377  and  _378
REMARK  153  A    between atoms: _387  and  _389
REMARK  154  A    between atoms: _389  and  _390
REMARK  155  A    between atoms: _389  and  _392
REMARK  156  A    between atoms: _392  and  _393
REMARK  157  A    between atoms: _396  and  _398
REMARK  158  A    between atoms: _398  and  _399
REMARK  159  A    between atoms: _402  and  _404
REMARK  160  A    between atoms: _404  and  _405
REMARK  161  A    between atoms: _404  and  _407
REMARK  162  A    between atoms: _407  and  _408
REMARK  163  A    between atoms: _408  and  _409
REMARK  164  A    between atoms: _412  and  _414
REMARK  165  A    between atoms: _414  and  _415
REMARK  166  A    between atoms: _414  and  _417
REMARK  167  A    between atoms: _417  and  _418
REMARK  168  A    between atoms: _428  and  _430
REMARK  169  A    between atoms: _430  and  _431
REMARK  170  A    between atoms: _434  and  _436
REMARK  171  A    between atoms: _436  and  _437
REMARK  172  A    between atoms: _436  and  _439
REMARK  173  A    between atoms: _439  and  _440
REMARK  174  A    between atoms: _442  and  _444
REMARK  175  A    between atoms: _444  and  _445
REMARK  176  A    between atoms: _447  and  _449
REMARK  177  A    between atoms: _449  and  _450
REMARK  178  A    between atoms: _449  and  _452
REMARK  179  A    between atoms: _452  and  _453
REMARK  180  A    between atoms: _458  and  _460
REMARK  181  A    between atoms: _460  and  _461
REMARK  182  A    between atoms: _463  and  _465
REMARK  183  A    between atoms: _465  and  _466
REMARK  184  A    between atoms: _465  and  _468
REMARK  185  A    between atoms: _468  and  _469
REMARK  186  A    between atoms: _469  and  _471
REMARK  187  A    between atoms: _471  and  CA_629
REMARK  188  A    between atoms: _472  and  _474
REMARK  189  A    between atoms: _474  and  _475
REMARK  190  A    between atoms: _474  and  _477
REMARK  191  A    between atoms: _477  and  _478
REMARK  192  A    between atoms: _480  and  _482
REMARK  193  A    between atoms: _482  and  _483
REMARK  194  A    between atoms: _482  and  _485
REMARK  195  A    between atoms: _487  and  _489
REMARK  196  A    between atoms: _489  and  _490
REMARK  197  A    between atoms: _489  and  _492
REMARK  198  A    between atoms: _494  and  _496
REMARK  199  A    between atoms: _496  and  _497
REMARK  200  A    between atoms: _496  and  _499
REMARK  201  A    between atoms: _499  and  _500
REMARK  202  A    between atoms: _503  and  _505
REMARK  203  A    between atoms: _505  and  _506
REMARK  204  A    between atoms: _508  and  _510
REMARK  205  A    between atoms: _510  and  _511
REMARK  206  A    between atoms: _510  and  _513
REMARK  207  A    between atoms: _513  and  _514
REMARK  208  A    between atoms: _519  and  _520
REMARK  209  A    between atoms: _522  and  _524
REMARK  210  A    between atoms: _524  and  _525
REMARK  211  A    between atoms: _524  and  _527
REMARK  212  A    between atoms: _527  and  _528
REMARK  213  A    between atoms: _531  and  _533
REMARK  214  A    between atoms: _533  and  _534
REMARK  215  A    between atoms: _533  and  _536
REMARK  216  A    between atoms: _536  and  _537
REMARK  217  A    between atoms: _542  and  _544
REMARK  218  A    between atoms: _544  and  _545
REMARK  219  A    between atoms: _544  and  _547
REMARK  220  A    between atoms: _547  and  _548
REMARK  221  A    between atoms: _551  and  _553
REMARK  222  A    between atoms: _553  and  _554
REMARK  223  A    between atoms: _553  and  _556
REMARK  224  A    between atoms: _556  and  _557
REMARK  225  A    between atoms: _559  and  _561
REMARK  226  A    between atoms: _561  and  _562
REMARK  227  A    between atoms: _561  and  _564
REMARK  228  A    between atoms: _564  and  _565
REMARK  229  A    between atoms: _568  and  _570
REMARK  230  A    between atoms: _570  and  _571
REMARK  231  A    between atoms: _570  and  _573
REMARK  232  A    between atoms: _573  and  _574
REMARK  233  A    between atoms: _574  and  _575
REMARK  234  A    between atoms: _578  and  _580
REMARK  235  A    between atoms: _580  and  _581
REMARK  236  A    between atoms: _580  and  _583
REMARK  237  A    between atoms: _583  and  _584
REMARK  238  A    between atoms: _587  and  _589
REMARK  239  A    between atoms: _589  and  _590
REMARK  240  A    between atoms: _592  and  _594
REMARK  241  A    between atoms: _594  and  _595
REMARK  242  A    between atoms: _594  and  _597
REMARK  243  A    between atoms: _597  and  _598
REMARK  244  A    between atoms: _601  and  _603
REMARK  245  A    between atoms: _603  and  _604
REMARK  246  A    between atoms: _603  and  _606
REMARK  247  A    between atoms: _606  and  _607
REMARK  248  A    between atoms: _609  and  _611
REMARK  249  A    between atoms: _611  and  _612
REMARK  250  A    between atoms: _615  and  _617
REMARK  251  A    between atoms: _617  and  _618
REMARK  252  A    between atoms: _617  and  _620
REMARK  253  A    between atoms: _620  and  _621
REMARK  254  A    between atoms: _623  and  _625
REMARK  255  A    between atoms: _625  and  _626
REMARK                            x       y       z     vdW  Elec       q    Type
REMARK                         _______ _______ _______ _____ _____    ______ ____
ROOT
ATOM      1  O   HOH     1      16.228  20.005  -2.799  0.00  0.00    +0.000 OA
ENDROOT
TORSDOF 0
REMARK  Name = ../refined-set-2016/4ryd/4ryd_pocket.pdb
REMARK  255 active torsions:
REMARK  status: ('A' for Active; 'I' for Inactive)
REMARK    1  A    between atoms: _1  and  _3
REMARK    2  A    between atoms: _3  and  _4
REMARK    3  A    between atoms: _3  and  _6
REMARK    4  A    between atoms: _6  and  _7
REMARK    5  A    between atoms: _10  and  _12
REMARK    6  A    between atoms: _12  and  _13
REMARK    7  A    between atoms: _12  and  _15
REMARK    8  A    between atoms: _15  and  _16
REMARK    9  A    between atoms: _19  and  _21
REMARK   10  A    between atoms: _21  and  _22
REMARK   11  A    between atoms: _24  and  _26
REMARK   12  A    between atoms: _26  and  _27
REMARK   13  A    between atoms: _26  and  _29
REMARK   14  A    between atoms: _29  and  _30
REMARK   15  A    between atoms: _35  and  _37
REMARK   16  A    between atoms: _37  and  _38
REMARK   17  A    between atoms: _37  and  _40
REMARK   18  A    between atoms: _40  and  _41
REMARK   19  A    between atoms: _41  and  _42
REMARK   20  A    between atoms: _42  and  _43
REMARK   21  A    between atoms: _52  and  _54
REMARK   22  A    between atoms: _54  and  _55
REMARK   23  A    between atoms: _54  and  _57
REMARK   24  A    between atoms: _57  and  _58
REMARK   25  A    between atoms: _61  and  _63
REMARK   26  A    between atoms: _63  and  _64
REMARK   27  A    between atoms: _63  and  _66
REMARK   28  A    between atoms: _66  and  _67
REMARK   29  A    between atoms: _72  and  _74
REMARK   30  A    between atoms: _74  and  _75
REMARK   31  A    between atoms: _74  and  _77
REMARK   32  A    between atoms: _77  and  _78
REMARK   33  A    between atoms: _81  and  _83
REMARK   34  A    between atoms: _83  and  _84
REMARK   35  A    between atoms: _83  and  _86
REMARK   36  A    between atoms: _86  and  _87
REMARK   37  A    between atoms: _92  and  _94
REMARK   38  A    between atoms: _94  and  _95
REMARK   39  A    between atoms: _94  and  _97
REMARK   40  A    between atoms: _97  and  _98
REMARK   41  A    between atoms: _98  and  _99
REMARK   42  A    between atoms: _99  and  _100
REMARK   43  A    between atoms: _109  and  _111
REMARK   44  A    between atoms: _111  and  _112
REMARK   45  A    between atoms: _111  and  _114
REMARK   46  A    between atoms: _114  and  _115
REMARK   47  A    between atoms: _120  and  _122
REMARK   48  A    between atoms: _122  and  _123
REMARK   49  A    between atoms: _125  and  _127
REMARK   50  A    between atoms: _127  and  _128
REMARK   51  A    between atoms: _127  and  _130
REMARK   52  A    between atoms: _130  and  _131
REMARK   53  A    between atoms: _134  and  _136
REMARK   54  A    between atoms: _136  and  _137
REMARK   55  A    between atoms: _136  and  _139
REMARK   56  A    between atoms: _141  and  _143
REMARK   57  A    between atoms: _143  and  _144
REMARK   58  A    between atoms: _143  and  _146
REMARK   59  A    between atoms: _146  and  _147
REMARK   60  A    between atoms: _147  and  _148
REMARK   61  A    between atoms: _148  and  _149
REMARK   62  A    between atoms: _158  and  _160
REMARK   63  A    between atoms: _160  and  _161
REMARK   64  A    between atoms: _160  and  _163
REMARK   65  A    between atoms: _163  and  _164
REMARK   66  A    between atoms: _164  and  _165
REMARK   67  A    between atoms: _167  and  _169
REMARK   68  A    between atoms: _169  and  _170
REMARK   69  A    between atoms: _169  and  _172
REMARK   70  A    between atoms: _172  and  _173
REMARK   71  A    between atoms: _176  and  _178
REMARK   72  A    between atoms: _178  and  _179
REMARK   73  A    between atoms: _178  and  _181
REMARK   74  A    between atoms: _181  and  _182
REMARK   75  A    between atoms: _185  and  _187
REMARK   76  A    between atoms: _187  and  _188
REMARK   77  A    between atoms: _190  and  _192
REMARK   78  A    between atoms: _192  and  _193
REMARK   79  A    between atoms: _192  and  _195
REMARK   80  A    between atoms: _195  and  _196
REMARK   81  A    between atoms: _196  and  _197
REMARK   82  A    between atoms: _200  and  _202
REMARK   83  A    between atoms: _202  and  _203
REMARK   84  A    between atoms: _202  and  _205
REMARK   85  A    between atoms: _208  and  _210
REMARK   86  A    between atoms: _210  and  _211
REMARK   87  A    between atoms: _210  and  _213
REMARK   88  A    between atoms: _213  and  _214
REMARK   89  A    between atoms: _217  and  _219
REMARK   90  A    between atoms: _219  and  _220
REMARK   91  A    between atoms: _219  and  _222
REMARK   92  A    between atoms: _222  and  _223
REMARK   93  A    between atoms: _226  and  _228
REMARK   94  A    between atoms: _228  and  _229
REMARK   95  A    between atoms: _232  and  _234
REMARK   96  A    between atoms: _234  and  _235
REMARK   97  A    between atoms: _234  and  _237
REMARK   98  A    between atoms: _240  and  _242
REMARK   99  A    between atoms: _242  and  _243
REMARK  100  A    between atoms: _242  and  _245
REMARK  101  A    between atoms: _245  and  _246
REMARK  102  A    between atoms: _246  and  _247
REMARK  103  A    between atoms: _250  and  _252
REMARK  104  A    between atoms: _252  and  _253
REMARK  105  A    between atoms: _256  and  _258
REMARK  106  A    between atoms: _258  and  _259
REMARK  107  A    between atoms: _262  and  _264
REMARK  108  A    between atoms: _264  and  _265
REMARK  109  A    between atoms: _264  and  _267
REMARK  110  A    between atoms: _267  and  _268
REMARK  111  A    between atoms: _270  and  _272
REMARK  112  A    between atoms: _272  and  _273
REMARK  113  A    between atoms: _272  and  _275
REMARK  114  A    between atoms: _275  and  _276
REMARK  115  A    between atoms: _286  and  _288
REMARK  116  A    between atoms: _288  and  _289
REMARK  117  A    between atoms: _292  and  _293
REMARK  118  A    between atoms: _298  and  _300
REMARK  119  A    between atoms: _300  and  _301
REMARK  120  A    between atoms: _300  and  _303
REMARK  121  A    between atoms: _303  and  _304
REMARK  122  A    between atoms: _304  and  _305
REMARK  123  A    between atoms: _308  and  _310
REMARK  124  A    between atoms: _310  and  _311
REMARK  125  A    between atoms: _310  and  _313
REMARK  126  A    between atoms: _313  and  _314
REMARK  127  A    between atoms: _317  and  _319
REMARK  128  A    between atoms: _319  and  _320
REMARK  129  A    between atoms: _319  and  _322
REMARK  130  A    between atoms: _322  and  _323
REMARK  131  A    between atoms: _326  and  _328
REMARK  132  A    between atoms: _328  and  _329
REMARK  133  A    between atoms: _328  and  _331
REMARK  134  A    between atoms: _331  and  _332
REMARK  135  A    between atoms: _335  and  _337
REMARK  136  A    between atoms: _337  and  _338
REMARK  137  A    between atoms: _337  and  _340
REMARK  138  A    between atoms: _343  and  _345
REMARK  139  A    between atoms: _345  and  _346
REMARK  140  A    between atoms: _345  and  _348
REMARK  141  A    between atoms: _348  and  _349
REMARK  142  A    between atoms: _352  and  _354
REMARK  143  A    between atoms: _354  and  _355
REMARK  144  A    between atoms: _358  and  _359
REMARK  145  A    between atoms: _364  and  _366
REMARK  146  A    between atoms: _366  and  _367
REMARK  147  A    between atoms: _370  and  _372
REMARK  148  A    between atoms: _372  and  _373
REMARK  149  A    between atoms: _372  and  _375
REMARK  150  A    between atoms: _375  and  _376
REMARK  151  A    between atoms: _376  and  _377
REMARK  152  A    between atoms: _377  and  _378
REMARK  153  A    between atoms: _387  and  _389
REMARK  154  A    between atoms: _389  and  _390
REMARK  155  A    between atoms: _389  and  _392
REMARK  156  A    between atoms: _392  and  _393
REMARK  157  A    between atoms: _396  and  _398
REMARK  158  A    between atoms: _398  and  _399
REMARK  159  A    between atoms: _402  and  _404
REMARK  160  A    between atoms: _404  and  _405
REMARK  161  A    between atoms: _404  and  _407
REMARK  162  A    between atoms: _407  and  _408
REMARK  163  A    between atoms: _408  and  _409
REMARK  164  A    between atoms: _412  and  _414
REMARK  165  A    between atoms: _414  and  _415
REMARK  166  A    between atoms: _414  and  _417
REMARK  167  A    between atoms: _417  and  _418
REMARK  168  A    between atoms: _428  and  _430
REMARK  169  A    between atoms: _430  and  _431
REMARK  170  A    between atoms: _434  and  _436
REMARK  171  A    between atoms: _436  and  _437
REMARK  172  A    between atoms: _436  and  _439
REMARK  173  A    between atoms: _439  and  _440
REMARK  174  A    between atoms: _442  and  _444
REMARK  175  A    between atoms: _444  and  _445
REMARK  176  A    between atoms: _447  and  _449
REMARK  177  A    between atoms: _449  and  _450
REMARK  178  A    between atoms: _449  and  _452
REMARK  179  A    between atoms: _452  and  _453
REMARK  180  A    between atoms: _458  and  _460
REMARK  181  A    between atoms: _460  and  _461
REMARK  182  A    between atoms: _463  and  _465
REMARK  183  A    between atoms: _465  and  _466
REMARK  184  A    between atoms: _465  and  _468
REMARK  185  A    between atoms: _468  and  _469
REMARK  186  A    between atoms: _469  and  _471
REMARK  187  A    between atoms: _471  and  CA_629
REMARK  188  A    between atoms: _472  and  _474
REMARK  189  A    between atoms: _474  and  _475
REMARK  190  A    between atoms: _474  and  _477
REMARK  191  A    between atoms: _477  and  _478
REMARK  192  A    between atoms: _480  and  _482
REMARK  193  A    between atoms: _482  and  _483
REMARK  194  A    between atoms: _482  and  _485
REMARK  195  A    between atoms: _487  and  _489
REMARK  196  A    between atoms: _489  and  _490
REMARK  197  A    between atoms: _489  and  _492
REMARK  198  A    between atoms: _494  and  _496
REMARK  199  A    between atoms: _496  and  _497
REMARK  200  A    between atoms: _496  and  _499
REMARK  201  A    between atoms: _499  and  _500
REMARK  202  A    between atoms: _503  and  _505
REMARK  203  A    between atoms: _505  and  _506
REMARK  204  A    between atoms: _508  and  _510
REMARK  205  A    between atoms: _510  and  _511
REMARK  206  A    between atoms: _510  and  _513
REMARK  207  A    between atoms: _513  and  _514
REMARK  208  A    between atoms: _519  and  _520
REMARK  209  A    between atoms: _522  and  _524
REMARK  210  A    between atoms: _524  and  _525
REMARK  211  A    between atoms: _524  and  _527
REMARK  212  A    between atoms: _527  and  _528
REMARK  213  A    between atoms: _531  and  _533
REMARK  214  A    between atoms: _533  and  _534
REMARK  215  A    between atoms: _533  and  _536
REMARK  216  A    between atoms: _536  and  _537
REMARK  217  A    between atoms: _542  and  _544
REMARK  218  A    between atoms: _544  and  _545
REMARK  219  A    between atoms: _544  and  _547
REMARK  220  A    between atoms: _547  and  _548
REMARK  221  A    between atoms: _551  and  _553
REMARK  222  A    between atoms: _553  and  _554
REMARK  223  A    between atoms: _553  and  _556
REMARK  224  A    between atoms: _556  and  _557
REMARK  225  A    between atoms: _559  and  _561
REMARK  226  A    between atoms: _561  and  _562
REMARK  227  A    between atoms: _561  and  _564
REMARK  228  A    between atoms: _564  and  _565
REMARK  229  A    between atoms: _568  and  _570
REMARK  230  A    between atoms: _570  and  _571
REMARK  231  A    between atoms: _570  and  _573
REMARK  232  A    between atoms: _573  and  _574
REMARK  233  A    between atoms: _574  and  _575
REMARK  234  A    between atoms: _578  and  _580
REMARK  235  A    between atoms: _580  and  _581
REMARK  236  A    between atoms: _580  and  _583
REMARK  237  A    between atoms: _583  and  _584
REMARK  238  A    between atoms: _587  and  _589
REMARK  239  A    between atoms: _589  and  _590
REMARK  240  A    between atoms: _592  and  _594
REMARK  241  A    between atoms: _594  and  _595
REMARK  242  A    between atoms: _594  and  _597
REMARK  243  A    between atoms: _597  and  _598
REMARK  244  A    between atoms: _601  and  _603
REMARK  245  A    between atoms: _603  and  _604
REMARK  246  A    between atoms: _603  and  _606
REMARK  247  A    between atoms: _606  and  _607
REMARK  248  A    between atoms: _609  and  _611
REMARK  249  A    between atoms: _611  and  _612
REMARK  250  A    between atoms: _615  and  _617
REMARK  251  A    between atoms: _617  and  _618
REMARK  252  A    between atoms: _617  and  _620
REMARK  253  A    between atoms: _620  and  _621
REMARK  254  A    between atoms: _623  and  _625
REMARK  255  A    between atoms: _625  and  _626
REMARK                            x       y       z     vdW  Elec       q    Type
REMARK                         _______ _______ _______ _____ _____    ______ ____
ROOT
ATOM      1  O   HOH     1      20.039  23.328  -6.897  0.00  0.00    +0.000 OA
ENDROOT
TORSDOF 0
REMARK  Name = ../refined-set-2016/4ryd/4ryd_pocket.pdb
REMARK  255 active torsions:
REMARK  status: ('A' for Active; 'I' for Inactive)
REMARK    1  A    between atoms: _1  and  _3
REMARK    2  A    between atoms: _3  and  _4
REMARK    3  A    between atoms: _3  and  _6
REMARK    4  A    between atoms: _6  and  _7
REMARK    5  A    between atoms: _10  and  _12
REMARK    6  A    between atoms: _12  and  _13
REMARK    7  A    between atoms: _12  and  _15
REMARK    8  A    between atoms: _15  and  _16
REMARK    9  A    between atoms: _19  and  _21
REMARK   10  A    between atoms: _21  and  _22
REMARK   11  A    between atoms: _24  and  _26
REMARK   12  A    between atoms: _26  and  _27
REMARK   13  A    between atoms: _26  and  _29
REMARK   14  A    between atoms: _29  and  _30
REMARK   15  A    between atoms: _35  and  _37
REMARK   16  A    between atoms: _37  and  _38
REMARK   17  A    between atoms: _37  and  _40
REMARK   18  A    between atoms: _40  and  _41
REMARK   19  A    between atoms: _41  and  _42
REMARK   20  A    between atoms: _42  and  _43
REMARK   21  A    between atoms: _52  and  _54
REMARK   22  A    between atoms: _54  and  _55
REMARK   23  A    between atoms: _54  and  _57
REMARK   24  A    between atoms: _57  and  _58
REMARK   25  A    between atoms: _61  and  _63
REMARK   26  A    between atoms: _63  and  _64
REMARK   27  A    between atoms: _63  and  _66
REMARK   28  A    between atoms: _66  and  _67
REMARK   29  A    between atoms: _72  and  _74
REMARK   30  A    between atoms: _74  and  _75
REMARK   31  A    between atoms: _74  and  _77
REMARK   32  A    between atoms: _77  and  _78
REMARK   33  A    between atoms: _81  and  _83
REMARK   34  A    between atoms: _83  and  _84
REMARK   35  A    between atoms: _83  and  _86
REMARK   36  A    between atoms: _86  and  _87
REMARK   37  A    between atoms: _92  and  _94
REMARK   38  A    between atoms: _94  and  _95
REMARK   39  A    between atoms: _94  and  _97
REMARK   40  A    between atoms: _97  and  _98
REMARK   41  A    between atoms: _98  and  _99
REMARK   42  A    between atoms: _99  and  _100
REMARK   43  A    between atoms: _109  and  _111
REMARK   44  A    between atoms: _111  and  _112
REMARK   45  A    between atoms: _111  and  _114
REMARK   46  A    between atoms: _114  and  _115
REMARK   47  A    between atoms: _120  and  _122
REMARK   48  A    between atoms: _122  and  _123
REMARK   49  A    between atoms: _125  and  _127
REMARK   50  A    between atoms: _127  and  _128
REMARK   51  A    between atoms: _127  and  _130
REMARK   52  A    between atoms: _130  and  _131
REMARK   53  A    between atoms: _134  and  _136
REMARK   54  A    between atoms: _136  and  _137
REMARK   55  A    between atoms: _136  and  _139
REMARK   56  A    between atoms: _141  and  _143
REMARK   57  A    between atoms: _143  and  _144
REMARK   58  A    between atoms: _143  and  _146
REMARK   59  A    between atoms: _146  and  _147
REMARK   60  A    between atoms: _147  and  _148
REMARK   61  A    between atoms: _148  and  _149
REMARK   62  A    between atoms: _158  and  _160
REMARK   63  A    between atoms: _160  and  _161
REMARK   64  A    between atoms: _160  and  _163
REMARK   65  A    between atoms: _163  and  _164
REMARK   66  A    between atoms: _164  and  _165
REMARK   67  A    between atoms: _167  and  _169
REMARK   68  A    between atoms: _169  and  _170
REMARK   69  A    between atoms: _169  and  _172
REMARK   70  A    between atoms: _172  and  _173
REMARK   71  A    between atoms: _176  and  _178
REMARK   72  A    between atoms: _178  and  _179
REMARK   73  A    between atoms: _178  and  _181
REMARK   74  A    between atoms: _181  and  _182
REMARK   75  A    between atoms: _185  and  _187
REMARK   76  A    between atoms: _187  and  _188
REMARK   77  A    between atoms: _190  and  _192
REMARK   78  A    between atoms: _192  and  _193
REMARK   79  A    between atoms: _192  and  _195
REMARK   80  A    between atoms: _195  and  _196
REMARK   81  A    between atoms: _196  and  _197
REMARK   82  A    between atoms: _200  and  _202
REMARK   83  A    between atoms: _202  and  _203
REMARK   84  A    between atoms: _202  and  _205
REMARK   85  A    between atoms: _208  and  _210
REMARK   86  A    between atoms: _210  and  _211
REMARK   87  A    between atoms: _210  and  _213
REMARK   88  A    between atoms: _213  and  _214
REMARK   89  A    between atoms: _217  and  _219
REMARK   90  A    between atoms: _219  and  _220
REMARK   91  A    between atoms: _219  and  _222
REMARK   92  A    between atoms: _222  and  _223
REMARK   93  A    between atoms: _226  and  _228
REMARK   94  A    between atoms: _228  and  _229
REMARK   95  A    between atoms: _232  and  _234
REMARK   96  A    between atoms: _234  and  _235
REMARK   97  A    between atoms: _234  and  _237
REMARK   98  A    between atoms: _240  and  _242
REMARK   99  A    between atoms: _242  and  _243
REMARK  100  A    between atoms: _242  and  _245
REMARK  101  A    between atoms: _245  and  _246
REMARK  102  A    between atoms: _246  and  _247
REMARK  103  A    between atoms: _250  and  _252
REMARK  104  A    between atoms: _252  and  _253
REMARK  105  A    between atoms: _256  and  _258
REMARK  106  A    between atoms: _258  and  _259
REMARK  107  A    between atoms: _262  and  _264
REMARK  108  A    between atoms: _264  and  _265
REMARK  109  A    between atoms: _264  and  _267
REMARK  110  A    between atoms: _267  and  _268
REMARK  111  A    between atoms: _270  and  _272
REMARK  112  A    between atoms: _272  and  _273
REMARK  113  A    between atoms: _272  and  _275
REMARK  114  A    between atoms: _275  and  _276
REMARK  115  A    between atoms: _286  and  _288
REMARK  116  A    between atoms: _288  and  _289
REMARK  117  A    between atoms: _292  and  _293
REMARK  118  A    between atoms: _298  and  _300
REMARK  119  A    between atoms: _300  and  _301
REMARK  120  A    between atoms: _300  and  _303
REMARK  121  A    between atoms: _303  and  _304
REMARK  122  A    between atoms: _304  and  _305
REMARK  123  A    between atoms: _308  and  _310
REMARK  124  A    between atoms: _310  and  _311
REMARK  125  A    between atoms: _310  and  _313
REMARK  126  A    between atoms: _313  and  _314
REMARK  127  A    between atoms: _317  and  _319
REMARK  128  A    between atoms: _319  and  _320
REMARK  129  A    between atoms: _319  and  _322
REMARK  130  A    between atoms: _322  and  _323
REMARK  131  A    between atoms: _326  and  _328
REMARK  132  A    between atoms: _328  and  _329
REMARK  133  A    between atoms: _328  and  _331
REMARK  134  A    between atoms: _331  and  _332
REMARK  135  A    between atoms: _335  and  _337
REMARK  136  A    between atoms: _337  and  _338
REMARK  137  A    between atoms: _337  and  _340
REMARK  138  A    between atoms: _343  and  _345
REMARK  139  A    between atoms: _345  and  _346
REMARK  140  A    between atoms: _345  and  _348
REMARK  141  A    between atoms: _348  and  _349
REMARK  142  A    between atoms: _352  and  _354
REMARK  143  A    between atoms: _354  and  _355
REMARK  144  A    between atoms: _358  and  _359
REMARK  145  A    between atoms: _364  and  _366
REMARK  146  A    between atoms: _366  and  _367
REMARK  147  A    between atoms: _370  and  _372
REMARK  148  A    between atoms: _372  and  _373
REMARK  149  A    between atoms: _372  and  _375
REMARK  150  A    between atoms: _375  and  _376
REMARK  151  A    between atoms: _376  and  _377
REMARK  152  A    between atoms: _377  and  _378
REMARK  153  A    between atoms: _387  and  _389
REMARK  154  A    between atoms: _389  and  _390
REMARK  155  A    between atoms: _389  and  _392
REMARK  156  A    between atoms: _392  and  _393
REMARK  157  A    between atoms: _396  and  _398
REMARK  158  A    between atoms: _398  and  _399
REMARK  159  A    between atoms: _402  and  _404
REMARK  160  A    between atoms: _404  and  _405
REMARK  161  A    between atoms: _404  and  _407
REMARK  162  A    between atoms: _407  and  _408
REMARK  163  A    between atoms: _408  and  _409
REMARK  164  A    between atoms: _412  and  _414
REMARK  165  A    between atoms: _414  and  _415
REMARK  166  A    between atoms: _414  and  _417
REMARK  167  A    between atoms: _417  and  _418
REMARK  168  A    between atoms: _428  and  _430
REMARK  169  A    between atoms: _430  and  _431
REMARK  170  A    between atoms: _434  and  _436
REMARK  171  A    between atoms: _436  and  _437
REMARK  172  A    between atoms: _436  and  _439
REMARK  173  A    between atoms: _439  and  _440
REMARK  174  A    between atoms: _442  and  _444
REMARK  175  A    between atoms: _444  and  _445
REMARK  176  A    between atoms: _447  and  _449
REMARK  177  A    between atoms: _449  and  _450
REMARK  178  A    between atoms: _449  and  _452
REMARK  179  A    between atoms: _452  and  _453
REMARK  180  A    between atoms: _458  and  _460
REMARK  181  A    between atoms: _460  and  _461
REMARK  182  A    between atoms: _463  and  _465
REMARK  183  A    between atoms: _465  and  _466
REMARK  184  A    between atoms: _465  and  _468
REMARK  185  A    between atoms: _468  and  _469
REMARK  186  A    between atoms: _469  and  _471
REMARK  187  A    between atoms: _471  and  CA_629
REMARK  188  A    between atoms: _472  and  _474
REMARK  189  A    between atoms: _474  and  _475
REMARK  190  A    between atoms: _474  and  _477
REMARK  191  A    between atoms: _477  and  _478
REMARK  192  A    between atoms: _480  and  _482
REMARK  193  A    between atoms: _482  and  _483
REMARK  194  A    between atoms: _482  and  _485
REMARK  195  A    between atoms: _487  and  _489
REMARK  196  A    between atoms: _489  and  _490
REMARK  197  A    between atoms: _489  and  _492
REMARK  198  A    between atoms: _494  and  _496
REMARK  199  A    between atoms: _496  and  _497
REMARK  200  A    between atoms: _496  and  _499
REMARK  201  A    between atoms: _499  and  _500
REMARK  202  A    between atoms: _503  and  _505
REMARK  203  A    between atoms: _505  and  _506
REMARK  204  A    between atoms: _508  and  _510
REMARK  205  A    between atoms: _510  and  _511
REMARK  206  A    between atoms: _510  and  _513
REMARK  207  A    between atoms: _513  and  _514
REMARK  208  A    between atoms: _519  and  _520
REMARK  209  A    between atoms: _522  and  _524
REMARK  210  A    between atoms: _524  and  _525
REMARK  211  A    between atoms: _524  and  _527
REMARK  212  A    between atoms: _527  and  _528
REMARK  213  A    between atoms: _531  and  _533
REMARK  214  A    between atoms: _533  and  _534
REMARK  215  A    between atoms: _533  and  _536
REMARK  216  A    between atoms: _536  and  _537
REMARK  217  A    between atoms: _542  and  _544
REMARK  218  A    between atoms: _544  and  _545
REMARK  219  A    between atoms: _544  and  _547
REMARK  220  A    between atoms: _547  and  _548
REMARK  221  A    between atoms: _551  and  _553
REMARK  222  A    between atoms: _553  and  _554
REMARK  223  A    between atoms: _553  and  _556
REMARK  224  A    between atoms: _556  and  _557
REMARK  225  A    between atoms: _559  and  _561
REMARK  226  A    between atoms: _561  and  _562
REMARK  227  A    between atoms: _561  and  _564
REMARK  228  A    between atoms: _564  and  _565
REMARK  229  A    between atoms: _568  and  _570
REMARK  230  A    between atoms: _570  and  _571
REMARK  231  A    between atoms: _570  and  _573
REMARK  232  A    between atoms: _573  and  _574
REMARK  233  A    between atoms: _574  and  _575
REMARK  234  A    between atoms: _578  and  _580
REMARK  235  A    between atoms: _580  and  _581
REMARK  236  A    between atoms: _580  and  _583
REMARK  237  A    between atoms: _583  and  _584
REMARK  238  A    between atoms: _587  and  _589
REMARK  239  A    between atoms: _589  and  _590
REMARK  240  A    between atoms: _592  and  _594
REMARK  241  A    between atoms: _594  and  _595
REMARK  242  A    between atoms: _594  and  _597
REMARK  243  A    between atoms: _597  and  _598
REMARK  244  A    between atoms: _601  and  _603
REMARK  245  A    between atoms: _603  and  _604
REMARK  246  A    between atoms: _603  and  _606
REMARK  247  A    between atoms: _606  and  _607
REMARK  248  A    between atoms: _609  and  _611
REMARK  249  A    between atoms: _611  and  _612
REMARK  250  A    between atoms: _615  and  _617
REMARK  251  A    between atoms: _617  and  _618
REMARK  252  A    between atoms: _617  and  _620
REMARK  253  A    between atoms: _620  and  _621
REMARK  254  A    between atoms: _623  and  _625
REMARK  255  A    between atoms: _625  and  _626
REMARK                            x       y       z     vdW  Elec       q    Type
REMARK                         _______ _______ _______ _____ _____    ______ ____
ROOT
ATOM      1  O   HOH     1      29.032  14.917  -4.006  0.00  0.00    +0.000 OA
ENDROOT
TORSDOF 0
REMARK  Name = ../refined-set-2016/4ryd/4ryd_pocket.pdb
REMARK  255 active torsions:
REMARK  status: ('A' for Active; 'I' for Inactive)
REMARK    1  A    between atoms: _1  and  _3
REMARK    2  A    between atoms: _3  and  _4
REMARK    3  A    between atoms: _3  and  _6
REMARK    4  A    between atoms: _6  and  _7
REMARK    5  A    between atoms: _10  and  _12
REMARK    6  A    between atoms: _12  and  _13
REMARK    7  A    between atoms: _12  and  _15
REMARK    8  A    between atoms: _15  and  _16
REMARK    9  A    between atoms: _19  and  _21
REMARK   10  A    between atoms: _21  and  _22
REMARK   11  A    between atoms: _24  and  _26
REMARK   12  A    between atoms: _26  and  _27
REMARK   13  A    between atoms: _26  and  _29
REMARK   14  A    between atoms: _29  and  _30
REMARK   15  A    between atoms: _35  and  _37
REMARK   16  A    between atoms: _37  and  _38
REMARK   17  A    between atoms: _37  and  _40
REMARK   18  A    between atoms: _40  and  _41
REMARK   19  A    between atoms: _41  and  _42
REMARK   20  A    between atoms: _42  and  _43
REMARK   21  A    between atoms: _52  and  _54
REMARK   22  A    between atoms: _54  and  _55
REMARK   23  A    between atoms: _54  and  _57
REMARK   24  A    between atoms: _57  and  _58
REMARK   25  A    between atoms: _61  and  _63
REMARK   26  A    between atoms: _63  and  _64
REMARK   27  A    between atoms: _63  and  _66
REMARK   28  A    between atoms: _66  and  _67
REMARK   29  A    between atoms: _72  and  _74
REMARK   30  A    between atoms: _74  and  _75
REMARK   31  A    between atoms: _74  and  _77
REMARK   32  A    between atoms: _77  and  _78
REMARK   33  A    between atoms: _81  and  _83
REMARK   34  A    between atoms: _83  and  _84
REMARK   35  A    between atoms: _83  and  _86
REMARK   36  A    between atoms: _86  and  _87
REMARK   37  A    between atoms: _92  and  _94
REMARK   38  A    between atoms: _94  and  _95
REMARK   39  A    between atoms: _94  and  _97
REMARK   40  A    between atoms: _97  and  _98
REMARK   41  A    between atoms: _98  and  _99
REMARK   42  A    between atoms: _99  and  _100
REMARK   43  A    between atoms: _109  and  _111
REMARK   44  A    between atoms: _111  and  _112
REMARK   45  A    between atoms: _111  and  _114
REMARK   46  A    between atoms: _114  and  _115
REMARK   47  A    between atoms: _120  and  _122
REMARK   48  A    between atoms: _122  and  _123
REMARK   49  A    between atoms: _125  and  _127
REMARK   50  A    between atoms: _127  and  _128
REMARK   51  A    between atoms: _127  and  _130
REMARK   52  A    between atoms: _130  and  _131
REMARK   53  A    between atoms: _134  and  _136
REMARK   54  A    between atoms: _136  and  _137
REMARK   55  A    between atoms: _136  and  _139
REMARK   56  A    between atoms: _141  and  _143
REMARK   57  A    between atoms: _143  and  _144
REMARK   58  A    between atoms: _143  and  _146
REMARK   59  A    between atoms: _146  and  _147
REMARK   60  A    between atoms: _147  and  _148
REMARK   61  A    between atoms: _148  and  _149
REMARK   62  A    between atoms: _158  and  _160
REMARK   63  A    between atoms: _160  and  _161
REMARK   64  A    between atoms: _160  and  _163
REMARK   65  A    between atoms: _163  and  _164
REMARK   66  A    between atoms: _164  and  _165
REMARK   67  A    between atoms: _167  and  _169
REMARK   68  A    between atoms: _169  and  _170
REMARK   69  A    between atoms: _169  and  _172
REMARK   70  A    between atoms: _172  and  _173
REMARK   71  A    between atoms: _176  and  _178
REMARK   72  A    between atoms: _178  and  _179
REMARK   73  A    between atoms: _178  and  _181
REMARK   74  A    between atoms: _181  and  _182
REMARK   75  A    between atoms: _185  and  _187
REMARK   76  A    between atoms: _187  and  _188
REMARK   77  A    between atoms: _190  and  _192
REMARK   78  A    between atoms: _192  and  _193
REMARK   79  A    between atoms: _192  and  _195
REMARK   80  A    between atoms: _195  and  _196
REMARK   81  A    between atoms: _196  and  _197
REMARK   82  A    between atoms: _200  and  _202
REMARK   83  A    between atoms: _202  and  _203
REMARK   84  A    between atoms: _202  and  _205
REMARK   85  A    between atoms: _208  and  _210
REMARK   86  A    between atoms: _210  and  _211
REMARK   87  A    between atoms: _210  and  _213
REMARK   88  A    between atoms: _213  and  _214
REMARK   89  A    between atoms: _217  and  _219
REMARK   90  A    between atoms: _219  and  _220
REMARK   91  A    between atoms: _219  and  _222
REMARK   92  A    between atoms: _222  and  _223
REMARK   93  A    between atoms: _226  and  _228
REMARK   94  A    between atoms: _228  and  _229
REMARK   95  A    between atoms: _232  and  _234
REMARK   96  A    between atoms: _234  and  _235
REMARK   97  A    between atoms: _234  and  _237
REMARK   98  A    between atoms: _240  and  _242
REMARK   99  A    between atoms: _242  and  _243
REMARK  100  A    between atoms: _242  and  _245
REMARK  101  A    between atoms: _245  and  _246
REMARK  102  A    between atoms: _246  and  _247
REMARK  103  A    between atoms: _250  and  _252
REMARK  104  A    between atoms: _252  and  _253
REMARK  105  A    between atoms: _256  and  _258
REMARK  106  A    between atoms: _258  and  _259
REMARK  107  A    between atoms: _262  and  _264
REMARK  108  A    between atoms: _264  and  _265
REMARK  109  A    between atoms: _264  and  _267
REMARK  110  A    between atoms: _267  and  _268
REMARK  111  A    between atoms: _270  and  _272
REMARK  112  A    between atoms: _272  and  _273
REMARK  113  A    between atoms: _272  and  _275
REMARK  114  A    between atoms: _275  and  _276
REMARK  115  A    between atoms: _286  and  _288
REMARK  116  A    between atoms: _288  and  _289
REMARK  117  A    between atoms: _292  and  _293
REMARK  118  A    between atoms: _298  and  _300
REMARK  119  A    between atoms: _300  and  _301
REMARK  120  A    between atoms: _300  and  _303
REMARK  121  A    between atoms: _303  and  _304
REMARK  122  A    between atoms: _304  and  _305
REMARK  123  A    between atoms: _308  and  _310
REMARK  124  A    between atoms: _310  and  _311
REMARK  125  A    between atoms: _310  and  _313
REMARK  126  A    between atoms: _313  and  _314
REMARK  127  A    between atoms: _317  and  _319
REMARK  128  A    between atoms: _319  and  _320
REMARK  129  A    between atoms: _319  and  _322
REMARK  130  A    between atoms: _322  and  _323
REMARK  131  A    between atoms: _326  and  _328
REMARK  132  A    between atoms: _328  and  _329
REMARK  133  A    between atoms: _328  and  _331
REMARK  134  A    between atoms: _331  and  _332
REMARK  135  A    between atoms: _335  and  _337
REMARK  136  A    between atoms: _337  and  _338
REMARK  137  A    between atoms: _337  and  _340
REMARK  138  A    between atoms: _343  and  _345
REMARK  139  A    between atoms: _345  and  _346
REMARK  140  A    between atoms: _345  and  _348
REMARK  141  A    between atoms: _348  and  _349
REMARK  142  A    between atoms: _352  and  _354
REMARK  143  A    between atoms: _354  and  _355
REMARK  144  A    between atoms: _358  and  _359
REMARK  145  A    between atoms: _364  and  _366
REMARK  146  A    between atoms: _366  and  _367
REMARK  147  A    between atoms: _370  and  _372
REMARK  148  A    between atoms: _372  and  _373
REMARK  149  A    between atoms: _372  and  _375
REMARK  150  A    between atoms: _375  and  _376
REMARK  151  A    between atoms: _376  and  _377
REMARK  152  A    between atoms: _377  and  _378
REMARK  153  A    between atoms: _387  and  _389
REMARK  154  A    between atoms: _389  and  _390
REMARK  155  A    between atoms: _389  and  _392
REMARK  156  A    between atoms: _392  and  _393
REMARK  157  A    between atoms: _396  and  _398
REMARK  158  A    between atoms: _398  and  _399
REMARK  159  A    between atoms: _402  and  _404
REMARK  160  A    between atoms: _404  and  _405
REMARK  161  A    between atoms: _404  and  _407
REMARK  162  A    between atoms: _407  and  _408
REMARK  163  A    between atoms: _408  and  _409
REMARK  164  A    between atoms: _412  and  _414
REMARK  165  A    between atoms: _414  and  _415
REMARK  166  A    between atoms: _414  and  _417
REMARK  167  A    between atoms: _417  and  _418
REMARK  168  A    between atoms: _428  and  _430
REMARK  169  A    between atoms: _430  and  _431
REMARK  170  A    between atoms: _434  and  _436
REMARK  171  A    between atoms: _436  and  _437
REMARK  172  A    between atoms: _436  and  _439
REMARK  173  A    between atoms: _439  and  _440
REMARK  174  A    between atoms: _442  and  _444
REMARK  175  A    between atoms: _444  and  _445
REMARK  176  A    between atoms: _447  and  _449
REMARK  177  A    between atoms: _449  and  _450
REMARK  178  A    between atoms: _449  and  _452
REMARK  179  A    between atoms: _452  and  _453
REMARK  180  A    between atoms: _458  and  _460
REMARK  181  A    between atoms: _460  and  _461
REMARK  182  A    between atoms: _463  and  _465
REMARK  183  A    between atoms: _465  and  _466
REMARK  184  A    between atoms: _465  and  _468
REMARK  185  A    between atoms: _468  and  _469
REMARK  186  A    between atoms: _469  and  _471
REMARK  187  A    between atoms: _471  and  CA_629
REMARK  188  A    between atoms: _472  and  _474
REMARK  189  A    between atoms: _474  and  _475
REMARK  190  A    between atoms: _474  and  _477
REMARK  191  A    between atoms: _477  and  _478
REMARK  192  A    between atoms: _480  and  _482
REMARK  193  A    between atoms: _482  and  _483
REMARK  194  A    between atoms: _482  and  _485
REMARK  195  A    between atoms: _487  and  _489
REMARK  196  A    between atoms: _489  and  _490
REMARK  197  A    between atoms: _489  and  _492
REMARK  198  A    between atoms: _494  and  _496
REMARK  199  A    between atoms: _496  and  _497
REMARK  200  A    between atoms: _496  and  _499
REMARK  201  A    between atoms: _499  and  _500
REMARK  202  A    between atoms: _503  and  _505
REMARK  203  A    between atoms: _505  and  _506
REMARK  204  A    between atoms: _508  and  _510
REMARK  205  A    between atoms: _510  and  _511
REMARK  206  A    between atoms: _510  and  _513
REMARK  207  A    between atoms: _513  and  _514
REMARK  208  A    between atoms: _519  and  _520
REMARK  209  A    between atoms: _522  and  _524
REMARK  210  A    between atoms: _524  and  _525
REMARK  211  A    between atoms: _524  and  _527
REMARK  212  A    between atoms: _527  and  _528
REMARK  213  A    between atoms: _531  and  _533
REMARK  214  A    between atoms: _533  and  _534
REMARK  215  A    between atoms: _533  and  _536
REMARK  216  A    between atoms: _536  and  _537
REMARK  217  A    between atoms: _542  and  _544
REMARK  218  A    between atoms: _544  and  _545
REMARK  219  A    between atoms: _544  and  _547
REMARK  220  A    between atoms: _547  and  _548
REMARK  221  A    between atoms: _551  and  _553
REMARK  222  A    between atoms: _553  and  _554
REMARK  223  A    between atoms: _553  and  _556
REMARK  224  A    between atoms: _556  and  _557
REMARK  225  A    between atoms: _559  and  _561
REMARK  226  A    between atoms: _561  and  _562
REMARK  227  A    between atoms: _561  and  _564
REMARK  228  A    between atoms: _564  and  _565
REMARK  229  A    between atoms: _568  and  _570
REMARK  230  A    between atoms: _570  and  _571
REMARK  231  A    between atoms: _570  and  _573
REMARK  232  A    between atoms: _573  and  _574
REMARK  233  A    between atoms: _574  and  _575
REMARK  234  A    between atoms: _578  and  _580
REMARK  235  A    between atoms: _580  and  _581
REMARK  236  A    between atoms: _580  and  _583
REMARK  237  A    between atoms: _583  and  _584
REMARK  238  A    between atoms: _587  and  _589
REMARK  239  A    between atoms: _589  and  _590
REMARK  240  A    between atoms: _592  and  _594
REMARK  241  A    between atoms: _594  and  _595
REMARK  242  A    between atoms: _594  and  _597
REMARK  243  A    between atoms: _597  and  _598
REMARK  244  A    between atoms: _601  and  _603
REMARK  245  A    between atoms: _603  and  _604
REMARK  246  A    between atoms: _603  and  _606
REMARK  247  A    between atoms: _606  and  _607
REMARK  248  A    between atoms: _609  and  _611
REMARK  249  A    between atoms: _611  and  _612
REMARK  250  A    between atoms: _615  and  _617
REMARK  251  A    between atoms: _617  and  _618
REMARK  252  A    between atoms: _617  and  _620
REMARK  253  A    between atoms: _620  and  _621
REMARK  254  A    between atoms: _623  and  _625
REMARK  255  A    between atoms: _625  and  _626
REMARK                            x       y       z     vdW  Elec       q    Type
REMARK                         _______ _______ _______ _____ _____    ______ ____
ROOT
ATOM      1  O   HOH     1      22.806  23.521  -8.993  0.00  0.00    +0.000 OA
ENDROOT
TORSDOF 0
REMARK  Name = ../refined-set-2016/4ryd/4ryd_pocket.pdb
REMARK  255 active torsions:
REMARK  status: ('A' for Active; 'I' for Inactive)
REMARK    1  A    between atoms: _1  and  _3
REMARK    2  A    between atoms: _3  and  _4
REMARK    3  A    between atoms: _3  and  _6
REMARK    4  A    between atoms: _6  and  _7
REMARK    5  A    between atoms: _10  and  _12
REMARK    6  A    between atoms: _12  and  _13
REMARK    7  A    between atoms: _12  and  _15
REMARK    8  A    between atoms: _15  and  _16
REMARK    9  A    between atoms: _19  and  _21
REMARK   10  A    between atoms: _21  and  _22
REMARK   11  A    between atoms: _24  and  _26
REMARK   12  A    between atoms: _26  and  _27
REMARK   13  A    between atoms: _26  and  _29
REMARK   14  A    between atoms: _29  and  _30
REMARK   15  A    between atoms: _35  and  _37
REMARK   16  A    between atoms: _37  and  _38
REMARK   17  A    between atoms: _37  and  _40
REMARK   18  A    between atoms: _40  and  _41
REMARK   19  A    between atoms: _41  and  _42
REMARK   20  A    between atoms: _42  and  _43
REMARK   21  A    between atoms: _52  and  _54
REMARK   22  A    between atoms: _54  and  _55
REMARK   23  A    between atoms: _54  and  _57
REMARK   24  A    between atoms: _57  and  _58
REMARK   25  A    between atoms: _61  and  _63
REMARK   26  A    between atoms: _63  and  _64
REMARK   27  A    between atoms: _63  and  _66
REMARK   28  A    between atoms: _66  and  _67
REMARK   29  A    between atoms: _72  and  _74
REMARK   30  A    between atoms: _74  and  _75
REMARK   31  A    between atoms: _74  and  _77
REMARK   32  A    between atoms: _77  and  _78
REMARK   33  A    between atoms: _81  and  _83
REMARK   34  A    between atoms: _83  and  _84
REMARK   35  A    between atoms: _83  and  _86
REMARK   36  A    between atoms: _86  and  _87
REMARK   37  A    between atoms: _92  and  _94
REMARK   38  A    between atoms: _94  and  _95
REMARK   39  A    between atoms: _94  and  _97
REMARK   40  A    between atoms: _97  and  _98
REMARK   41  A    between atoms: _98  and  _99
REMARK   42  A    between atoms: _99  and  _100
REMARK   43  A    between atoms: _109  and  _111
REMARK   44  A    between atoms: _111  and  _112
REMARK   45  A    between atoms: _111  and  _114
REMARK   46  A    between atoms: _114  and  _115
REMARK   47  A    between atoms: _120  and  _122
REMARK   48  A    between atoms: _122  and  _123
REMARK   49  A    between atoms: _125  and  _127
REMARK   50  A    between atoms: _127  and  _128
REMARK   51  A    between atoms: _127  and  _130
REMARK   52  A    between atoms: _130  and  _131
REMARK   53  A    between atoms: _134  and  _136
REMARK   54  A    between atoms: _136  and  _137
REMARK   55  A    between atoms: _136  and  _139
REMARK   56  A    between atoms: _141  and  _143
REMARK   57  A    between atoms: _143  and  _144
REMARK   58  A    between atoms: _143  and  _146
REMARK   59  A    between atoms: _146  and  _147
REMARK   60  A    between atoms: _147  and  _148
REMARK   61  A    between atoms: _148  and  _149
REMARK   62  A    between atoms: _158  and  _160
REMARK   63  A    between atoms: _160  and  _161
REMARK   64  A    between atoms: _160  and  _163
REMARK   65  A    between atoms: _163  and  _164
REMARK   66  A    between atoms: _164  and  _165
REMARK   67  A    between atoms: _167  and  _169
REMARK   68  A    between atoms: _169  and  _170
REMARK   69  A    between atoms: _169  and  _172
REMARK   70  A    between atoms: _172  and  _173
REMARK   71  A    between atoms: _176  and  _178
REMARK   72  A    between atoms: _178  and  _179
REMARK   73  A    between atoms: _178  and  _181
REMARK   74  A    between atoms: _181  and  _182
REMARK   75  A    between atoms: _185  and  _187
REMARK   76  A    between atoms: _187  and  _188
REMARK   77  A    between atoms: _190  and  _192
REMARK   78  A    between atoms: _192  and  _193
REMARK   79  A    between atoms: _192  and  _195
REMARK   80  A    between atoms: _195  and  _196
REMARK   81  A    between atoms: _196  and  _197
REMARK   82  A    between atoms: _200  and  _202
REMARK   83  A    between atoms: _202  and  _203
REMARK   84  A    between atoms: _202  and  _205
REMARK   85  A    between atoms: _208  and  _210
REMARK   86  A    between atoms: _210  and  _211
REMARK   87  A    between atoms: _210  and  _213
REMARK   88  A    between atoms: _213  and  _214
REMARK   89  A    between atoms: _217  and  _219
REMARK   90  A    between atoms: _219  and  _220
REMARK   91  A    between atoms: _219  and  _222
REMARK   92  A    between atoms: _222  and  _223
REMARK   93  A    between atoms: _226  and  _228
REMARK   94  A    between atoms: _228  and  _229
REMARK   95  A    between atoms: _232  and  _234
REMARK   96  A    between atoms: _234  and  _235
REMARK   97  A    between atoms: _234  and  _237
REMARK   98  A    between atoms: _240  and  _242
REMARK   99  A    between atoms: _242  and  _243
REMARK  100  A    between atoms: _242  and  _245
REMARK  101  A    between atoms: _245  and  _246
REMARK  102  A    between atoms: _246  and  _247
REMARK  103  A    between atoms: _250  and  _252
REMARK  104  A    between atoms: _252  and  _253
REMARK  105  A    between atoms: _256  and  _258
REMARK  106  A    between atoms: _258  and  _259
REMARK  107  A    between atoms: _262  and  _264
REMARK  108  A    between atoms: _264  and  _265
REMARK  109  A    between atoms: _264  and  _267
REMARK  110  A    between atoms: _267  and  _268
REMARK  111  A    between atoms: _270  and  _272
REMARK  112  A    between atoms: _272  and  _273
REMARK  113  A    between atoms: _272  and  _275
REMARK  114  A    between atoms: _275  and  _276
REMARK  115  A    between atoms: _286  and  _288
REMARK  116  A    between atoms: _288  and  _289
REMARK  117  A    between atoms: _292  and  _293
REMARK  118  A    between atoms: _298  and  _300
REMARK  119  A    between atoms: _300  and  _301
REMARK  120  A    between atoms: _300  and  _303
REMARK  121  A    between atoms: _303  and  _304
REMARK  122  A    between atoms: _304  and  _305
REMARK  123  A    between atoms: _308  and  _310
REMARK  124  A    between atoms: _310  and  _311
REMARK  125  A    between atoms: _310  and  _313
REMARK  126  A    between atoms: _313  and  _314
REMARK  127  A    between atoms: _317  and  _319
REMARK  128  A    between atoms: _319  and  _320
REMARK  129  A    between atoms: _319  and  _322
REMARK  130  A    between atoms: _322  and  _323
REMARK  131  A    between atoms: _326  and  _328
REMARK  132  A    between atoms: _328  and  _329
REMARK  133  A    between atoms: _328  and  _331
REMARK  134  A    between atoms: _331  and  _332
REMARK  135  A    between atoms: _335  and  _337
REMARK  136  A    between atoms: _337  and  _338
REMARK  137  A    between atoms: _337  and  _340
REMARK  138  A    between atoms: _343  and  _345
REMARK  139  A    between atoms: _345  and  _346
REMARK  140  A    between atoms: _345  and  _348
REMARK  141  A    between atoms: _348  and  _349
REMARK  142  A    between atoms: _352  and  _354
REMARK  143  A    between atoms: _354  and  _355
REMARK  144  A    between atoms: _358  and  _359
REMARK  145  A    between atoms: _364  and  _366
REMARK  146  A    between atoms: _366  and  _367
REMARK  147  A    between atoms: _370  and  _372
REMARK  148  A    between atoms: _372  and  _373
REMARK  149  A    between atoms: _372  and  _375
REMARK  150  A    between atoms: _375  and  _376
REMARK  151  A    between atoms: _376  and  _377
REMARK  152  A    between atoms: _377  and  _378
REMARK  153  A    between atoms: _387  and  _389
REMARK  154  A    between atoms: _389  and  _390
REMARK  155  A    between atoms: _389  and  _392
REMARK  156  A    between atoms: _392  and  _393
REMARK  157  A    between atoms: _396  and  _398
REMARK  158  A    between atoms: _398  and  _399
REMARK  159  A    between atoms: _402  and  _404
REMARK  160  A    between atoms: _404  and  _405
REMARK  161  A    between atoms: _404  and  _407
REMARK  162  A    between atoms: _407  and  _408
REMARK  163  A    between atoms: _408  and  _409
REMARK  164  A    between atoms: _412  and  _414
REMARK  165  A    between atoms: _414  and  _415
REMARK  166  A    between atoms: _414  and  _417
REMARK  167  A    between atoms: _417  and  _418
REMARK  168  A    between atoms: _428  and  _430
REMARK  169  A    between atoms: _430  and  _431
REMARK  170  A    between atoms: _434  and  _436
REMARK  171  A    between atoms: _436  and  _437
REMARK  172  A    between atoms: _436  and  _439
REMARK  173  A    between atoms: _439  and  _440
REMARK  174  A    between atoms: _442  and  _444
REMARK  175  A    between atoms: _444  and  _445
REMARK  176  A    between atoms: _447  and  _449
REMARK  177  A    between atoms: _449  and  _450
REMARK  178  A    between atoms: _449  and  _452
REMARK  179  A    between atoms: _452  and  _453
REMARK  180  A    between atoms: _458  and  _460
REMARK  181  A    between atoms: _460  and  _461
REMARK  182  A    between atoms: _463  and  _465
REMARK  183  A    between atoms: _465  and  _466
REMARK  184  A    between atoms: _465  and  _468
REMARK  185  A    between atoms: _468  and  _469
REMARK  186  A    between atoms: _469  and  _471
REMARK  187  A    between atoms: _471  and  CA_629
REMARK  188  A    between atoms: _472  and  _474
REMARK  189  A    between atoms: _474  and  _475
REMARK  190  A    between atoms: _474  and  _477
REMARK  191  A    between atoms: _477  and  _478
REMARK  192  A    between atoms: _480  and  _482
REMARK  193  A    between atoms: _482  and  _483
REMARK  194  A    between atoms: _482  and  _485
REMARK  195  A    between atoms: _487  and  _489
REMARK  196  A    between atoms: _489  and  _490
REMARK  197  A    between atoms: _489  and  _492
REMARK  198  A    between atoms: _494  and  _496
REMARK  199  A    between atoms: _496  and  _497
REMARK  200  A    between atoms: _496  and  _499
REMARK  201  A    between atoms: _499  and  _500
REMARK  202  A    between atoms: _503  and  _505
REMARK  203  A    between atoms: _505  and  _506
REMARK  204  A    between atoms: _508  and  _510
REMARK  205  A    between atoms: _510  and  _511
REMARK  206  A    between atoms: _510  and  _513
REMARK  207  A    between atoms: _513  and  _514
REMARK  208  A    between atoms: _519  and  _520
REMARK  209  A    between atoms: _522  and  _524
REMARK  210  A    between atoms: _524  and  _525
REMARK  211  A    between atoms: _524  and  _527
REMARK  212  A    between atoms: _527  and  _528
REMARK  213  A    between atoms: _531  and  _533
REMARK  214  A    between atoms: _533  and  _534
REMARK  215  A    between atoms: _533  and  _536
REMARK  216  A    between atoms: _536  and  _537
REMARK  217  A    between atoms: _542  and  _544
REMARK  218  A    between atoms: _544  and  _545
REMARK  219  A    between atoms: _544  and  _547
REMARK  220  A    between atoms: _547  and  _548
REMARK  221  A    between atoms: _551  and  _553
REMARK  222  A    between atoms: _553  and  _554
REMARK  223  A    between atoms: _553  and  _556
REMARK  224  A    between atoms: _556  and  _557
REMARK  225  A    between atoms: _559  and  _561
REMARK  226  A    between atoms: _561  and  _562
REMARK  227  A    between atoms: _561  and  _564
REMARK  228  A    between atoms: _564  and  _565
REMARK  229  A    between atoms: _568  and  _570
REMARK  230  A    between atoms: _570  and  _571
REMARK  231  A    between atoms: _570  and  _573
REMARK  232  A    between atoms: _573  and  _574
REMARK  233  A    between atoms: _574  and  _575
REMARK  234  A    between atoms: _578  and  _580
REMARK  235  A    between atoms: _580  and  _581
REMARK  236  A    between atoms: _580  and  _583
REMARK  237  A    between atoms: _583  and  _584
REMARK  238  A    between atoms: _587  and  _589
REMARK  239  A    between atoms: _589  and  _590
REMARK  240  A    between atoms: _592  and  _594
REMARK  241  A    between atoms: _594  and  _595
REMARK  242  A    between atoms: _594  and  _597
REMARK  243  A    between atoms: _597  and  _598
REMARK  244  A    between atoms: _601  and  _603
REMARK  245  A    between atoms: _603  and  _604
REMARK  246  A    between atoms: _603  and  _606
REMARK  247  A    between atoms: _606  and  _607
REMARK  248  A    between atoms: _609  and  _611
REMARK  249  A    between atoms: _611  and  _612
REMARK  250  A    between atoms: _615  and  _617
REMARK  251  A    between atoms: _617  and  _618
REMARK  252  A    between atoms: _617  and  _620
REMARK  253  A    between atoms: _620  and  _621
REMARK  254  A    between atoms: _623  and  _625
REMARK  255  A    between atoms: _625  and  _626
REMARK                            x       y       z     vdW  Elec       q    Type
REMARK                         _______ _______ _______ _____ _____    ______ ____
ROOT
ATOM      1  O   HOH     1      40.451  21.927  -1.396  0.00  0.00    +0.000 OA
ENDROOT
TORSDOF 0
REMARK  Name = ../refined-set-2016/4ryd/4ryd_pocket.pdb
REMARK  255 active torsions:
REMARK  status: ('A' for Active; 'I' for Inactive)
REMARK    1  A    between atoms: _1  and  _3
REMARK    2  A    between atoms: _3  and  _4
REMARK    3  A    between atoms: _3  and  _6
REMARK    4  A    between atoms: _6  and  _7
REMARK    5  A    between atoms: _10  and  _12
REMARK    6  A    between atoms: _12  and  _13
REMARK    7  A    between atoms: _12  and  _15
REMARK    8  A    between atoms: _15  and  _16
REMARK    9  A    between atoms: _19  and  _21
REMARK   10  A    between atoms: _21  and  _22
REMARK   11  A    between atoms: _24  and  _26
REMARK   12  A    between atoms: _26  and  _27
REMARK   13  A    between atoms: _26  and  _29
REMARK   14  A    between atoms: _29  and  _30
REMARK   15  A    between atoms: _35  and  _37
REMARK   16  A    between atoms: _37  and  _38
REMARK   17  A    between atoms: _37  and  _40
REMARK   18  A    between atoms: _40  and  _41
REMARK   19  A    between atoms: _41  and  _42
REMARK   20  A    between atoms: _42  and  _43
REMARK   21  A    between atoms: _52  and  _54
REMARK   22  A    between atoms: _54  and  _55
REMARK   23  A    between atoms: _54  and  _57
REMARK   24  A    between atoms: _57  and  _58
REMARK   25  A    between atoms: _61  and  _63
REMARK   26  A    between atoms: _63  and  _64
REMARK   27  A    between atoms: _63  and  _66
REMARK   28  A    between atoms: _66  and  _67
REMARK   29  A    between atoms: _72  and  _74
REMARK   30  A    between atoms: _74  and  _75
REMARK   31  A    between atoms: _74  and  _77
REMARK   32  A    between atoms: _77  and  _78
REMARK   33  A    between atoms: _81  and  _83
REMARK   34  A    between atoms: _83  and  _84
REMARK   35  A    between atoms: _83  and  _86
REMARK   36  A    between atoms: _86  and  _87
REMARK   37  A    between atoms: _92  and  _94
REMARK   38  A    between atoms: _94  and  _95
REMARK   39  A    between atoms: _94  and  _97
REMARK   40  A    between atoms: _97  and  _98
REMARK   41  A    between atoms: _98  and  _99
REMARK   42  A    between atoms: _99  and  _100
REMARK   43  A    between atoms: _109  and  _111
REMARK   44  A    between atoms: _111  and  _112
REMARK   45  A    between atoms: _111  and  _114
REMARK   46  A    between atoms: _114  and  _115
REMARK   47  A    between atoms: _120  and  _122
REMARK   48  A    between atoms: _122  and  _123
REMARK   49  A    between atoms: _125  and  _127
REMARK   50  A    between atoms: _127  and  _128
REMARK   51  A    between atoms: _127  and  _130
REMARK   52  A    between atoms: _130  and  _131
REMARK   53  A    between atoms: _134  and  _136
REMARK   54  A    between atoms: _136  and  _137
REMARK   55  A    between atoms: _136  and  _139
REMARK   56  A    between atoms: _141  and  _143
REMARK   57  A    between atoms: _143  and  _144
REMARK   58  A    between atoms: _143  and  _146
REMARK   59  A    between atoms: _146  and  _147
REMARK   60  A    between atoms: _147  and  _148
REMARK   61  A    between atoms: _148  and  _149
REMARK   62  A    between atoms: _158  and  _160
REMARK   63  A    between atoms: _160  and  _161
REMARK   64  A    between atoms: _160  and  _163
REMARK   65  A    between atoms: _163  and  _164
REMARK   66  A    between atoms: _164  and  _165
REMARK   67  A    between atoms: _167  and  _169
REMARK   68  A    between atoms: _169  and  _170
REMARK   69  A    between atoms: _169  and  _172
REMARK   70  A    between atoms: _172  and  _173
REMARK   71  A    between atoms: _176  and  _178
REMARK   72  A    between atoms: _178  and  _179
REMARK   73  A    between atoms: _178  and  _181
REMARK   74  A    between atoms: _181  and  _182
REMARK   75  A    between atoms: _185  and  _187
REMARK   76  A    between atoms: _187  and  _188
REMARK   77  A    between atoms: _190  and  _192
REMARK   78  A    between atoms: _192  and  _193
REMARK   79  A    between atoms: _192  and  _195
REMARK   80  A    between atoms: _195  and  _196
REMARK   81  A    between atoms: _196  and  _197
REMARK   82  A    between atoms: _200  and  _202
REMARK   83  A    between atoms: _202  and  _203
REMARK   84  A    between atoms: _202  and  _205
REMARK   85  A    between atoms: _208  and  _210
REMARK   86  A    between atoms: _210  and  _211
REMARK   87  A    between atoms: _210  and  _213
REMARK   88  A    between atoms: _213  and  _214
REMARK   89  A    between atoms: _217  and  _219
REMARK   90  A    between atoms: _219  and  _220
REMARK   91  A    between atoms: _219  and  _222
REMARK   92  A    between atoms: _222  and  _223
REMARK   93  A    between atoms: _226  and  _228
REMARK   94  A    between atoms: _228  and  _229
REMARK   95  A    between atoms: _232  and  _234
REMARK   96  A    between atoms: _234  and  _235
REMARK   97  A    between atoms: _234  and  _237
REMARK   98  A    between atoms: _240  and  _242
REMARK   99  A    between atoms: _242  and  _243
REMARK  100  A    between atoms: _242  and  _245
REMARK  101  A    between atoms: _245  and  _246
REMARK  102  A    between atoms: _246  and  _247
REMARK  103  A    between atoms: _250  and  _252
REMARK  104  A    between atoms: _252  and  _253
REMARK  105  A    between atoms: _256  and  _258
REMARK  106  A    between atoms: _258  and  _259
REMARK  107  A    between atoms: _262  and  _264
REMARK  108  A    between atoms: _264  and  _265
REMARK  109  A    between atoms: _264  and  _267
REMARK  110  A    between atoms: _267  and  _268
REMARK  111  A    between atoms: _270  and  _272
REMARK  112  A    between atoms: _272  and  _273
REMARK  113  A    between atoms: _272  and  _275
REMARK  114  A    between atoms: _275  and  _276
REMARK  115  A    between atoms: _286  and  _288
REMARK  116  A    between atoms: _288  and  _289
REMARK  117  A    between atoms: _292  and  _293
REMARK  118  A    between atoms: _298  and  _300
REMARK  119  A    between atoms: _300  and  _301
REMARK  120  A    between atoms: _300  and  _303
REMARK  121  A    between atoms: _303  and  _304
REMARK  122  A    between atoms: _304  and  _305
REMARK  123  A    between atoms: _308  and  _310
REMARK  124  A    between atoms: _310  and  _311
REMARK  125  A    between atoms: _310  and  _313
REMARK  126  A    between atoms: _313  and  _314
REMARK  127  A    between atoms: _317  and  _319
REMARK  128  A    between atoms: _319  and  _320
REMARK  129  A    between atoms: _319  and  _322
REMARK  130  A    between atoms: _322  and  _323
REMARK  131  A    between atoms: _326  and  _328
REMARK  132  A    between atoms: _328  and  _329
REMARK  133  A    between atoms: _328  and  _331
REMARK  134  A    between atoms: _331  and  _332
REMARK  135  A    between atoms: _335  and  _337
REMARK  136  A    between atoms: _337  and  _338
REMARK  137  A    between atoms: _337  and  _340
REMARK  138  A    between atoms: _343  and  _345
REMARK  139  A    between atoms: _345  and  _346
REMARK  140  A    between atoms: _345  and  _348
REMARK  141  A    between atoms: _348  and  _349
REMARK  142  A    between atoms: _352  and  _354
REMARK  143  A    between atoms: _354  and  _355
REMARK  144  A    between atoms: _358  and  _359
REMARK  145  A    between atoms: _364  and  _366
REMARK  146  A    between atoms: _366  and  _367
REMARK  147  A    between atoms: _370  and  _372
REMARK  148  A    between atoms: _372  and  _373
REMARK  149  A    between atoms: _372  and  _375
REMARK  150  A    between atoms: _375  and  _376
REMARK  151  A    between atoms: _376  and  _377
REMARK  152  A    between atoms: _377  and  _378
REMARK  153  A    between atoms: _387  and  _389
REMARK  154  A    between atoms: _389  and  _390
REMARK  155  A    between atoms: _389  and  _392
REMARK  156  A    between atoms: _392  and  _393
REMARK  157  A    between atoms: _396  and  _398
REMARK  158  A    between atoms: _398  and  _399
REMARK  159  A    between atoms: _402  and  _404
REMARK  160  A    between atoms: _404  and  _405
REMARK  161  A    between atoms: _404  and  _407
REMARK  162  A    between atoms: _407  and  _408
REMARK  163  A    between atoms: _408  and  _409
REMARK  164  A    between atoms: _412  and  _414
REMARK  165  A    between atoms: _414  and  _415
REMARK  166  A    between atoms: _414  and  _417
REMARK  167  A    between atoms: _417  and  _418
REMARK  168  A    between atoms: _428  and  _430
REMARK  169  A    between atoms: _430  and  _431
REMARK  170  A    between atoms: _434  and  _436
REMARK  171  A    between atoms: _436  and  _437
REMARK  172  A    between atoms: _436  and  _439
REMARK  173  A    between atoms: _439  and  _440
REMARK  174  A    between atoms: _442  and  _444
REMARK  175  A    between atoms: _444  and  _445
REMARK  176  A    between atoms: _447  and  _449
REMARK  177  A    between atoms: _449  and  _450
REMARK  178  A    between atoms: _449  and  _452
REMARK  179  A    between atoms: _452  and  _453
REMARK  180  A    between atoms: _458  and  _460
REMARK  181  A    between atoms: _460  and  _461
REMARK  182  A    between atoms: _463  and  _465
REMARK  183  A    between atoms: _465  and  _466
REMARK  184  A    between atoms: _465  and  _468
REMARK  185  A    between atoms: _468  and  _469
REMARK  186  A    between atoms: _469  and  _471
REMARK  187  A    between atoms: _471  and  CA_629
REMARK  188  A    between atoms: _472  and  _474
REMARK  189  A    between atoms: _474  and  _475
REMARK  190  A    between atoms: _474  and  _477
REMARK  191  A    between atoms: _477  and  _478
REMARK  192  A    between atoms: _480  and  _482
REMARK  193  A    between atoms: _482  and  _483
REMARK  194  A    between atoms: _482  and  _485
REMARK  195  A    between atoms: _487  and  _489
REMARK  196  A    between atoms: _489  and  _490
REMARK  197  A    between atoms: _489  and  _492
REMARK  198  A    between atoms: _494  and  _496
REMARK  199  A    between atoms: _496  and  _497
REMARK  200  A    between atoms: _496  and  _499
REMARK  201  A    between atoms: _499  and  _500
REMARK  202  A    between atoms: _503  and  _505
REMARK  203  A    between atoms: _505  and  _506
REMARK  204  A    between atoms: _508  and  _510
REMARK  205  A    between atoms: _510  and  _511
REMARK  206  A    between atoms: _510  and  _513
REMARK  207  A    between atoms: _513  and  _514
REMARK  208  A    between atoms: _519  and  _520
REMARK  209  A    between atoms: _522  and  _524
REMARK  210  A    between atoms: _524  and  _525
REMARK  211  A    between atoms: _524  and  _527
REMARK  212  A    between atoms: _527  and  _528
REMARK  213  A    between atoms: _531  and  _533
REMARK  214  A    between atoms: _533  and  _534
REMARK  215  A    between atoms: _533  and  _536
REMARK  216  A    between atoms: _536  and  _537
REMARK  217  A    between atoms: _542  and  _544
REMARK  218  A    between atoms: _544  and  _545
REMARK  219  A    between atoms: _544  and  _547
REMARK  220  A    between atoms: _547  and  _548
REMARK  221  A    between atoms: _551  and  _553
REMARK  222  A    between atoms: _553  and  _554
REMARK  223  A    between atoms: _553  and  _556
REMARK  224  A    between atoms: _556  and  _557
REMARK  225  A    between atoms: _559  and  _561
REMARK  226  A    between atoms: _561  and  _562
REMARK  227  A    between atoms: _561  and  _564
REMARK  228  A    between atoms: _564  and  _565
REMARK  229  A    between atoms: _568  and  _570
REMARK  230  A    between atoms: _570  and  _571
REMARK  231  A    between atoms: _570  and  _573
REMARK  232  A    between atoms: _573  and  _574
REMARK  233  A    between atoms: _574  and  _575
REMARK  234  A    between atoms: _578  and  _580
REMARK  235  A    between atoms: _580  and  _581
REMARK  236  A    between atoms: _580  and  _583
REMARK  237  A    between atoms: _583  and  _584
REMARK  238  A    between atoms: _587  and  _589
REMARK  239  A    between atoms: _589  and  _590
REMARK  240  A    between atoms: _592  and  _594
REMARK  241  A    between atoms: _594  and  _595
REMARK  242  A    between atoms: _594  and  _597
REMARK  243  A    between atoms: _597  and  _598
REMARK  244  A    between atoms: _601  and  _603
REMARK  245  A    between atoms: _603  and  _604
REMARK  246  A    between atoms: _603  and  _606
REMARK  247  A    between atoms: _606  and  _607
REMARK  248  A    between atoms: _609  and  _611
REMARK  249  A    between atoms: _611  and  _612
REMARK  250  A    between atoms: _615  and  _617
REMARK  251  A    between atoms: _617  and  _618
REMARK  252  A    between atoms: _617  and  _620
REMARK  253  A    between atoms: _620  and  _621
REMARK  254  A    between atoms: _623  and  _625
REMARK  255  A    between atoms: _625  and  _626
REMARK                            x       y       z     vdW  Elec       q    Type
REMARK                         _______ _______ _______ _____ _____    ______ ____
ROOT
ATOM      1  O   HOH     1      14.427  26.259  -6.003  0.00  0.00    +0.000 OA
ENDROOT
TORSDOF 0
REMARK  Name = ../refined-set-2016/4ryd/4ryd_pocket.pdb
REMARK  255 active torsions:
REMARK  status: ('A' for Active; 'I' for Inactive)
REMARK    1  A    between atoms: _1  and  _3
REMARK    2  A    between atoms: _3  and  _4
REMARK    3  A    between atoms: _3  and  _6
REMARK    4  A    between atoms: _6  and  _7
REMARK    5  A    between atoms: _10  and  _12
REMARK    6  A    between atoms: _12  and  _13
REMARK    7  A    between atoms: _12  and  _15
REMARK    8  A    between atoms: _15  and  _16
REMARK    9  A    between atoms: _19  and  _21
REMARK   10  A    between atoms: _21  and  _22
REMARK   11  A    between atoms: _24  and  _26
REMARK   12  A    between atoms: _26  and  _27
REMARK   13  A    between atoms: _26  and  _29
REMARK   14  A    between atoms: _29  and  _30
REMARK   15  A    between atoms: _35  and  _37
REMARK   16  A    between atoms: _37  and  _38
REMARK   17  A    between atoms: _37  and  _40
REMARK   18  A    between atoms: _40  and  _41
REMARK   19  A    between atoms: _41  and  _42
REMARK   20  A    between atoms: _42  and  _43
REMARK   21  A    between atoms: _52  and  _54
REMARK   22  A    between atoms: _54  and  _55
REMARK   23  A    between atoms: _54  and  _57
REMARK   24  A    between atoms: _57  and  _58
REMARK   25  A    between atoms: _61  and  _63
REMARK   26  A    between atoms: _63  and  _64
REMARK   27  A    between atoms: _63  and  _66
REMARK   28  A    between atoms: _66  and  _67
REMARK   29  A    between atoms: _72  and  _74
REMARK   30  A    between atoms: _74  and  _75
REMARK   31  A    between atoms: _74  and  _77
REMARK   32  A    between atoms: _77  and  _78
REMARK   33  A    between atoms: _81  and  _83
REMARK   34  A    between atoms: _83  and  _84
REMARK   35  A    between atoms: _83  and  _86
REMARK   36  A    between atoms: _86  and  _87
REMARK   37  A    between atoms: _92  and  _94
REMARK   38  A    between atoms: _94  and  _95
REMARK   39  A    between atoms: _94  and  _97
REMARK   40  A    between atoms: _97  and  _98
REMARK   41  A    between atoms: _98  and  _99
REMARK   42  A    between atoms: _99  and  _100
REMARK   43  A    between atoms: _109  and  _111
REMARK   44  A    between atoms: _111  and  _112
REMARK   45  A    between atoms: _111  and  _114
REMARK   46  A    between atoms: _114  and  _115
REMARK   47  A    between atoms: _120  and  _122
REMARK   48  A    between atoms: _122  and  _123
REMARK   49  A    between atoms: _125  and  _127
REMARK   50  A    between atoms: _127  and  _128
REMARK   51  A    between atoms: _127  and  _130
REMARK   52  A    between atoms: _130  and  _131
REMARK   53  A    between atoms: _134  and  _136
REMARK   54  A    between atoms: _136  and  _137
REMARK   55  A    between atoms: _136  and  _139
REMARK   56  A    between atoms: _141  and  _143
REMARK   57  A    between atoms: _143  and  _144
REMARK   58  A    between atoms: _143  and  _146
REMARK   59  A    between atoms: _146  and  _147
REMARK   60  A    between atoms: _147  and  _148
REMARK   61  A    between atoms: _148  and  _149
REMARK   62  A    between atoms: _158  and  _160
REMARK   63  A    between atoms: _160  and  _161
REMARK   64  A    between atoms: _160  and  _163
REMARK   65  A    between atoms: _163  and  _164
REMARK   66  A    between atoms: _164  and  _165
REMARK   67  A    between atoms: _167  and  _169
REMARK   68  A    between atoms: _169  and  _170
REMARK   69  A    between atoms: _169  and  _172
REMARK   70  A    between atoms: _172  and  _173
REMARK   71  A    between atoms: _176  and  _178
REMARK   72  A    between atoms: _178  and  _179
REMARK   73  A    between atoms: _178  and  _181
REMARK   74  A    between atoms: _181  and  _182
REMARK   75  A    between atoms: _185  and  _187
REMARK   76  A    between atoms: _187  and  _188
REMARK   77  A    between atoms: _190  and  _192
REMARK   78  A    between atoms: _192  and  _193
REMARK   79  A    between atoms: _192  and  _195
REMARK   80  A    between atoms: _195  and  _196
REMARK   81  A    between atoms: _196  and  _197
REMARK   82  A    between atoms: _200  and  _202
REMARK   83  A    between atoms: _202  and  _203
REMARK   84  A    between atoms: _202  and  _205
REMARK   85  A    between atoms: _208  and  _210
REMARK   86  A    between atoms: _210  and  _211
REMARK   87  A    between atoms: _210  and  _213
REMARK   88  A    between atoms: _213  and  _214
REMARK   89  A    between atoms: _217  and  _219
REMARK   90  A    between atoms: _219  and  _220
REMARK   91  A    between atoms: _219  and  _222
REMARK   92  A    between atoms: _222  and  _223
REMARK   93  A    between atoms: _226  and  _228
REMARK   94  A    between atoms: _228  and  _229
REMARK   95  A    between atoms: _232  and  _234
REMARK   96  A    between atoms: _234  and  _235
REMARK   97  A    between atoms: _234  and  _237
REMARK   98  A    between atoms: _240  and  _242
REMARK   99  A    between atoms: _242  and  _243
REMARK  100  A    between atoms: _242  and  _245
REMARK  101  A    between atoms: _245  and  _246
REMARK  102  A    between atoms: _246  and  _247
REMARK  103  A    between atoms: _250  and  _252
REMARK  104  A    between atoms: _252  and  _253
REMARK  105  A    between atoms: _256  and  _258
REMARK  106  A    between atoms: _258  and  _259
REMARK  107  A    between atoms: _262  and  _264
REMARK  108  A    between atoms: _264  and  _265
REMARK  109  A    between atoms: _264  and  _267
REMARK  110  A    between atoms: _267  and  _268
REMARK  111  A    between atoms: _270  and  _272
REMARK  112  A    between atoms: _272  and  _273
REMARK  113  A    between atoms: _272  and  _275
REMARK  114  A    between atoms: _275  and  _276
REMARK  115  A    between atoms: _286  and  _288
REMARK  116  A    between atoms: _288  and  _289
REMARK  117  A    between atoms: _292  and  _293
REMARK  118  A    between atoms: _298  and  _300
REMARK  119  A    between atoms: _300  and  _301
REMARK  120  A    between atoms: _300  and  _303
REMARK  121  A    between atoms: _303  and  _304
REMARK  122  A    between atoms: _304  and  _305
REMARK  123  A    between atoms: _308  and  _310
REMARK  124  A    between atoms: _310  and  _311
REMARK  125  A    between atoms: _310  and  _313
REMARK  126  A    between atoms: _313  and  _314
REMARK  127  A    between atoms: _317  and  _319
REMARK  128  A    between atoms: _319  and  _320
REMARK  129  A    between atoms: _319  and  _322
REMARK  130  A    between atoms: _322  and  _323
REMARK  131  A    between atoms: _326  and  _328
REMARK  132  A    between atoms: _328  and  _329
REMARK  133  A    between atoms: _328  and  _331
REMARK  134  A    between atoms: _331  and  _332
REMARK  135  A    between atoms: _335  and  _337
REMARK  136  A    between atoms: _337  and  _338
REMARK  137  A    between atoms: _337  and  _340
REMARK  138  A    between atoms: _343  and  _345
REMARK  139  A    between atoms: _345  and  _346
REMARK  140  A    between atoms: _345  and  _348
REMARK  141  A    between atoms: _348  and  _349
REMARK  142  A    between atoms: _352  and  _354
REMARK  143  A    between atoms: _354  and  _355
REMARK  144  A    between atoms: _358  and  _359
REMARK  145  A    between atoms: _364  and  _366
REMARK  146  A    between atoms: _366  and  _367
REMARK  147  A    between atoms: _370  and  _372
REMARK  148  A    between atoms: _372  and  _373
REMARK  149  A    between atoms: _372  and  _375
REMARK  150  A    between atoms: _375  and  _376
REMARK  151  A    between atoms: _376  and  _377
REMARK  152  A    between atoms: _377  and  _378
REMARK  153  A    between atoms: _387  and  _389
REMARK  154  A    between atoms: _389  and  _390
REMARK  155  A    between atoms: _389  and  _392
REMARK  156  A    between atoms: _392  and  _393
REMARK  157  A    between atoms: _396  and  _398
REMARK  158  A    between atoms: _398  and  _399
REMARK  159  A    between atoms: _402  and  _404
REMARK  160  A    between atoms: _404  and  _405
REMARK  161  A    between atoms: _404  and  _407
REMARK  162  A    between atoms: _407  and  _408
REMARK  163  A    between atoms: _408  and  _409
REMARK  164  A    between atoms: _412  and  _414
REMARK  165  A    between atoms: _414  and  _415
REMARK  166  A    between atoms: _414  and  _417
REMARK  167  A    between atoms: _417  and  _418
REMARK  168  A    between atoms: _428  and  _430
REMARK  169  A    between atoms: _430  and  _431
REMARK  170  A    between atoms: _434  and  _436
REMARK  171  A    between atoms: _436  and  _437
REMARK  172  A    between atoms: _436  and  _439
REMARK  173  A    between atoms: _439  and  _440
REMARK  174  A    between atoms: _442  and  _444
REMARK  175  A    between atoms: _444  and  _445
REMARK  176  A    between atoms: _447  and  _449
REMARK  177  A    between atoms: _449  and  _450
REMARK  178  A    between atoms: _449  and  _452
REMARK  179  A    between atoms: _452  and  _453
REMARK  180  A    between atoms: _458  and  _460
REMARK  181  A    between atoms: _460  and  _461
REMARK  182  A    between atoms: _463  and  _465
REMARK  183  A    between atoms: _465  and  _466
REMARK  184  A    between atoms: _465  and  _468
REMARK  185  A    between atoms: _468  and  _469
REMARK  186  A    between atoms: _469  and  _471
REMARK  187  A    between atoms: _471  and  CA_629
REMARK  188  A    between atoms: _472  and  _474
REMARK  189  A    between atoms: _474  and  _475
REMARK  190  A    between atoms: _474  and  _477
REMARK  191  A    between atoms: _477  and  _478
REMARK  192  A    between atoms: _480  and  _482
REMARK  193  A    between atoms: _482  and  _483
REMARK  194  A    between atoms: _482  and  _485
REMARK  195  A    between atoms: _487  and  _489
REMARK  196  A    between atoms: _489  and  _490
REMARK  197  A    between atoms: _489  and  _492
REMARK  198  A    between atoms: _494  and  _496
REMARK  199  A    between atoms: _496  and  _497
REMARK  200  A    between atoms: _496  and  _499
REMARK  201  A    between atoms: _499  and  _500
REMARK  202  A    between atoms: _503  and  _505
REMARK  203  A    between atoms: _505  and  _506
REMARK  204  A    between atoms: _508  and  _510
REMARK  205  A    between atoms: _510  and  _511
REMARK  206  A    between atoms: _510  and  _513
REMARK  207  A    between atoms: _513  and  _514
REMARK  208  A    between atoms: _519  and  _520
REMARK  209  A    between atoms: _522  and  _524
REMARK  210  A    between atoms: _524  and  _525
REMARK  211  A    between atoms: _524  and  _527
REMARK  212  A    between atoms: _527  and  _528
REMARK  213  A    between atoms: _531  and  _533
REMARK  214  A    between atoms: _533  and  _534
REMARK  215  A    between atoms: _533  and  _536
REMARK  216  A    between atoms: _536  and  _537
REMARK  217  A    between atoms: _542  and  _544
REMARK  218  A    between atoms: _544  and  _545
REMARK  219  A    between atoms: _544  and  _547
REMARK  220  A    between atoms: _547  and  _548
REMARK  221  A    between atoms: _551  and  _553
REMARK  222  A    between atoms: _553  and  _554
REMARK  223  A    between atoms: _553  and  _556
REMARK  224  A    between atoms: _556  and  _557
REMARK  225  A    between atoms: _559  and  _561
REMARK  226  A    between atoms: _561  and  _562
REMARK  227  A    between atoms: _561  and  _564
REMARK  228  A    between atoms: _564  and  _565
REMARK  229  A    between atoms: _568  and  _570
REMARK  230  A    between atoms: _570  and  _571
REMARK  231  A    between atoms: _570  and  _573
REMARK  232  A    between atoms: _573  and  _574
REMARK  233  A    between atoms: _574  and  _575
REMARK  234  A    between atoms: _578  and  _580
REMARK  235  A    between atoms: _580  and  _581
REMARK  236  A    between atoms: _580  and  _583
REMARK  237  A    between atoms: _583  and  _584
REMARK  238  A    between atoms: _587  and  _589
REMARK  239  A    between atoms: _589  and  _590
REMARK  240  A    between atoms: _592  and  _594
REMARK  241  A    between atoms: _594  and  _595
REMARK  242  A    between atoms: _594  and  _597
REMARK  243  A    between atoms: _597  and  _598
REMARK  244  A    between atoms: _601  and  _603
REMARK  245  A    between atoms: _603  and  _604
REMARK  246  A    between atoms: _603  and  _606
REMARK  247  A    between atoms: _606  and  _607
REMARK  248  A    between atoms: _609  and  _611
REMARK  249  A    between atoms: _611  and  _612
REMARK  250  A    between atoms: _615  and  _617
REMARK  251  A    between atoms: _617  and  _618
REMARK  252  A    between atoms: _617  and  _620
REMARK  253  A    between atoms: _620  and  _621
REMARK  254  A    between atoms: _623  and  _625
REMARK  255  A    between atoms: _625  and  _626
REMARK                            x       y       z     vdW  Elec       q    Type
REMARK                         _______ _______ _______ _____ _____    ______ ____
ROOT
ATOM      1  O   HOH     1      30.733  44.567  -2.282  0.00  0.00    +0.000 OA
ENDROOT
TORSDOF 0
REMARK  Name = ../refined-set-2016/4ryd/4ryd_pocket.pdb
REMARK  255 active torsions:
REMARK  status: ('A' for Active; 'I' for Inactive)
REMARK    1  A    between atoms: _1  and  _3
REMARK    2  A    between atoms: _3  and  _4
REMARK    3  A    between atoms: _3  and  _6
REMARK    4  A    between atoms: _6  and  _7
REMARK    5  A    between atoms: _10  and  _12
REMARK    6  A    between atoms: _12  and  _13
REMARK    7  A    between atoms: _12  and  _15
REMARK    8  A    between atoms: _15  and  _16
REMARK    9  A    between atoms: _19  and  _21
REMARK   10  A    between atoms: _21  and  _22
REMARK   11  A    between atoms: _24  and  _26
REMARK   12  A    between atoms: _26  and  _27
REMARK   13  A    between atoms: _26  and  _29
REMARK   14  A    between atoms: _29  and  _30
REMARK   15  A    between atoms: _35  and  _37
REMARK   16  A    between atoms: _37  and  _38
REMARK   17  A    between atoms: _37  and  _40
REMARK   18  A    between atoms: _40  and  _41
REMARK   19  A    between atoms: _41  and  _42
REMARK   20  A    between atoms: _42  and  _43
REMARK   21  A    between atoms: _52  and  _54
REMARK   22  A    between atoms: _54  and  _55
REMARK   23  A    between atoms: _54  and  _57
REMARK   24  A    between atoms: _57  and  _58
REMARK   25  A    between atoms: _61  and  _63
REMARK   26  A    between atoms: _63  and  _64
REMARK   27  A    between atoms: _63  and  _66
REMARK   28  A    between atoms: _66  and  _67
REMARK   29  A    between atoms: _72  and  _74
REMARK   30  A    between atoms: _74  and  _75
REMARK   31  A    between atoms: _74  and  _77
REMARK   32  A    between atoms: _77  and  _78
REMARK   33  A    between atoms: _81  and  _83
REMARK   34  A    between atoms: _83  and  _84
REMARK   35  A    between atoms: _83  and  _86
REMARK   36  A    between atoms: _86  and  _87
REMARK   37  A    between atoms: _92  and  _94
REMARK   38  A    between atoms: _94  and  _95
REMARK   39  A    between atoms: _94  and  _97
REMARK   40  A    between atoms: _97  and  _98
REMARK   41  A    between atoms: _98  and  _99
REMARK   42  A    between atoms: _99  and  _100
REMARK   43  A    between atoms: _109  and  _111
REMARK   44  A    between atoms: _111  and  _112
REMARK   45  A    between atoms: _111  and  _114
REMARK   46  A    between atoms: _114  and  _115
REMARK   47  A    between atoms: _120  and  _122
REMARK   48  A    between atoms: _122  and  _123
REMARK   49  A    between atoms: _125  and  _127
REMARK   50  A    between atoms: _127  and  _128
REMARK   51  A    between atoms: _127  and  _130
REMARK   52  A    between atoms: _130  and  _131
REMARK   53  A    between atoms: _134  and  _136
REMARK   54  A    between atoms: _136  and  _137
REMARK   55  A    between atoms: _136  and  _139
REMARK   56  A    between atoms: _141  and  _143
REMARK   57  A    between atoms: _143  and  _144
REMARK   58  A    between atoms: _143  and  _146
REMARK   59  A    between atoms: _146  and  _147
REMARK   60  A    between atoms: _147  and  _148
REMARK   61  A    between atoms: _148  and  _149
REMARK   62  A    between atoms: _158  and  _160
REMARK   63  A    between atoms: _160  and  _161
REMARK   64  A    between atoms: _160  and  _163
REMARK   65  A    between atoms: _163  and  _164
REMARK   66  A    between atoms: _164  and  _165
REMARK   67  A    between atoms: _167  and  _169
REMARK   68  A    between atoms: _169  and  _170
REMARK   69  A    between atoms: _169  and  _172
REMARK   70  A    between atoms: _172  and  _173
REMARK   71  A    between atoms: _176  and  _178
REMARK   72  A    between atoms: _178  and  _179
REMARK   73  A    between atoms: _178  and  _181
REMARK   74  A    between atoms: _181  and  _182
REMARK   75  A    between atoms: _185  and  _187
REMARK   76  A    between atoms: _187  and  _188
REMARK   77  A    between atoms: _190  and  _192
REMARK   78  A    between atoms: _192  and  _193
REMARK   79  A    between atoms: _192  and  _195
REMARK   80  A    between atoms: _195  and  _196
REMARK   81  A    between atoms: _196  and  _197
REMARK   82  A    between atoms: _200  and  _202
REMARK   83  A    between atoms: _202  and  _203
REMARK   84  A    between atoms: _202  and  _205
REMARK   85  A    between atoms: _208  and  _210
REMARK   86  A    between atoms: _210  and  _211
REMARK   87  A    between atoms: _210  and  _213
REMARK   88  A    between atoms: _213  and  _214
REMARK   89  A    between atoms: _217  and  _219
REMARK   90  A    between atoms: _219  and  _220
REMARK   91  A    between atoms: _219  and  _222
REMARK   92  A    between atoms: _222  and  _223
REMARK   93  A    between atoms: _226  and  _228
REMARK   94  A    between atoms: _228  and  _229
REMARK   95  A    between atoms: _232  and  _234
REMARK   96  A    between atoms: _234  and  _235
REMARK   97  A    between atoms: _234  and  _237
REMARK   98  A    between atoms: _240  and  _242
REMARK   99  A    between atoms: _242  and  _243
REMARK  100  A    between atoms: _242  and  _245
REMARK  101  A    between atoms: _245  and  _246
REMARK  102  A    between atoms: _246  and  _247
REMARK  103  A    between atoms: _250  and  _252
REMARK  104  A    between atoms: _252  and  _253
REMARK  105  A    between atoms: _256  and  _258
REMARK  106  A    between atoms: _258  and  _259
REMARK  107  A    between atoms: _262  and  _264
REMARK  108  A    between atoms: _264  and  _265
REMARK  109  A    between atoms: _264  and  _267
REMARK  110  A    between atoms: _267  and  _268
REMARK  111  A    between atoms: _270  and  _272
REMARK  112  A    between atoms: _272  and  _273
REMARK  113  A    between atoms: _272  and  _275
REMARK  114  A    between atoms: _275  and  _276
REMARK  115  A    between atoms: _286  and  _288
REMARK  116  A    between atoms: _288  and  _289
REMARK  117  A    between atoms: _292  and  _293
REMARK  118  A    between atoms: _298  and  _300
REMARK  119  A    between atoms: _300  and  _301
REMARK  120  A    between atoms: _300  and  _303
REMARK  121  A    between atoms: _303  and  _304
REMARK  122  A    between atoms: _304  and  _305
REMARK  123  A    between atoms: _308  and  _310
REMARK  124  A    between atoms: _310  and  _311
REMARK  125  A    between atoms: _310  and  _313
REMARK  126  A    between atoms: _313  and  _314
REMARK  127  A    between atoms: _317  and  _319
REMARK  128  A    between atoms: _319  and  _320
REMARK  129  A    between atoms: _319  and  _322
REMARK  130  A    between atoms: _322  and  _323
REMARK  131  A    between atoms: _326  and  _328
REMARK  132  A    between atoms: _328  and  _329
REMARK  133  A    between atoms: _328  and  _331
REMARK  134  A    between atoms: _331  and  _332
REMARK  135  A    between atoms: _335  and  _337
REMARK  136  A    between atoms: _337  and  _338
REMARK  137  A    between atoms: _337  and  _340
REMARK  138  A    between atoms: _343  and  _345
REMARK  139  A    between atoms: _345  and  _346
REMARK  140  A    between atoms: _345  and  _348
REMARK  141  A    between atoms: _348  and  _349
REMARK  142  A    between atoms: _352  and  _354
REMARK  143  A    between atoms: _354  and  _355
REMARK  144  A    between atoms: _358  and  _359
REMARK  145  A    between atoms: _364  and  _366
REMARK  146  A    between atoms: _366  and  _367
REMARK  147  A    between atoms: _370  and  _372
REMARK  148  A    between atoms: _372  and  _373
REMARK  149  A    between atoms: _372  and  _375
REMARK  150  A    between atoms: _375  and  _376
REMARK  151  A    between atoms: _376  and  _377
REMARK  152  A    between atoms: _377  and  _378
REMARK  153  A    between atoms: _387  and  _389
REMARK  154  A    between atoms: _389  and  _390
REMARK  155  A    between atoms: _389  and  _392
REMARK  156  A    between atoms: _392  and  _393
REMARK  157  A    between atoms: _396  and  _398
REMARK  158  A    between atoms: _398  and  _399
REMARK  159  A    between atoms: _402  and  _404
REMARK  160  A    between atoms: _404  and  _405
REMARK  161  A    between atoms: _404  and  _407
REMARK  162  A    between atoms: _407  and  _408
REMARK  163  A    between atoms: _408  and  _409
REMARK  164  A    between atoms: _412  and  _414
REMARK  165  A    between atoms: _414  and  _415
REMARK  166  A    between atoms: _414  and  _417
REMARK  167  A    between atoms: _417  and  _418
REMARK  168  A    between atoms: _428  and  _430
REMARK  169  A    between atoms: _430  and  _431
REMARK  170  A    between atoms: _434  and  _436
REMARK  171  A    between atoms: _436  and  _437
REMARK  172  A    between atoms: _436  and  _439
REMARK  173  A    between atoms: _439  and  _440
REMARK  174  A    between atoms: _442  and  _444
REMARK  175  A    between atoms: _444  and  _445
REMARK  176  A    between atoms: _447  and  _449
REMARK  177  A    between atoms: _449  and  _450
REMARK  178  A    between atoms: _449  and  _452
REMARK  179  A    between atoms: _452  and  _453
REMARK  180  A    between atoms: _458  and  _460
REMARK  181  A    between atoms: _460  and  _461
REMARK  182  A    between atoms: _463  and  _465
REMARK  183  A    between atoms: _465  and  _466
REMARK  184  A    between atoms: _465  and  _468
REMARK  185  A    between atoms: _468  and  _469
REMARK  186  A    between atoms: _469  and  _471
REMARK  187  A    between atoms: _471  and  CA_629
REMARK  188  A    between atoms: _472  and  _474
REMARK  189  A    between atoms: _474  and  _475
REMARK  190  A    between atoms: _474  and  _477
REMARK  191  A    between atoms: _477  and  _478
REMARK  192  A    between atoms: _480  and  _482
REMARK  193  A    between atoms: _482  and  _483
REMARK  194  A    between atoms: _482  and  _485
REMARK  195  A    between atoms: _487  and  _489
REMARK  196  A    between atoms: _489  and  _490
REMARK  197  A    between atoms: _489  and  _492
REMARK  198  A    between atoms: _494  and  _496
REMARK  199  A    between atoms: _496  and  _497
REMARK  200  A    between atoms: _496  and  _499
REMARK  201  A    between atoms: _499  and  _500
REMARK  202  A    between atoms: _503  and  _505
REMARK  203  A    between atoms: _505  and  _506
REMARK  204  A    between atoms: _508  and  _510
REMARK  205  A    between atoms: _510  and  _511
REMARK  206  A    between atoms: _510  and  _513
REMARK  207  A    between atoms: _513  and  _514
REMARK  208  A    between atoms: _519  and  _520
REMARK  209  A    between atoms: _522  and  _524
REMARK  210  A    between atoms: _524  and  _525
REMARK  211  A    between atoms: _524  and  _527
REMARK  212  A    between atoms: _527  and  _528
REMARK  213  A    between atoms: _531  and  _533
REMARK  214  A    between atoms: _533  and  _534
REMARK  215  A    between atoms: _533  and  _536
REMARK  216  A    between atoms: _536  and  _537
REMARK  217  A    between atoms: _542  and  _544
REMARK  218  A    between atoms: _544  and  _545
REMARK  219  A    between atoms: _544  and  _547
REMARK  220  A    between atoms: _547  and  _548
REMARK  221  A    between atoms: _551  and  _553
REMARK  222  A    between atoms: _553  and  _554
REMARK  223  A    between atoms: _553  and  _556
REMARK  224  A    between atoms: _556  and  _557
REMARK  225  A    between atoms: _559  and  _561
REMARK  226  A    between atoms: _561  and  _562
REMARK  227  A    between atoms: _561  and  _564
REMARK  228  A    between atoms: _564  and  _565
REMARK  229  A    between atoms: _568  and  _570
REMARK  230  A    between atoms: _570  and  _571
REMARK  231  A    between atoms: _570  and  _573
REMARK  232  A    between atoms: _573  and  _574
REMARK  233  A    between atoms: _574  and  _575
REMARK  234  A    between atoms: _578  and  _580
REMARK  235  A    between atoms: _580  and  _581
REMARK  236  A    between atoms: _580  and  _583
REMARK  237  A    between atoms: _583  and  _584
REMARK  238  A    between atoms: _587  and  _589
REMARK  239  A    between atoms: _589  and  _590
REMARK  240  A    between atoms: _592  and  _594
REMARK  241  A    between atoms: _594  and  _595
REMARK  242  A    between atoms: _594  and  _597
REMARK  243  A    between atoms: _597  and  _598
REMARK  244  A    between atoms: _601  and  _603
REMARK  245  A    between atoms: _603  and  _604
REMARK  246  A    between atoms: _603  and  _606
REMARK  247  A    between atoms: _606  and  _607
REMARK  248  A    between atoms: _609  and  _611
REMARK  249  A    between atoms: _611  and  _612
REMARK  250  A    between atoms: _615  and  _617
REMARK  251  A    between atoms: _617  and  _618
REMARK  252  A    between atoms: _617  and  _620
REMARK  253  A    between atoms: _620  and  _621
REMARK  254  A    between atoms: _623  and  _625
REMARK  255  A    between atoms: _625  and  _626
REMARK                            x       y       z     vdW  Elec       q    Type
REMARK                         _______ _______ _______ _____ _____    ______ ____
ROOT
ATOM      1  O   HOH     1      14.326  28.145  -2.870  0.00  0.00    +0.000 OA
ENDROOT
TORSDOF 0
REMARK  Name = ../refined-set-2016/4ryd/4ryd_pocket.pdb
REMARK  255 active torsions:
REMARK  status: ('A' for Active; 'I' for Inactive)
REMARK    1  A    between atoms: _1  and  _3
REMARK    2  A    between atoms: _3  and  _4
REMARK    3  A    between atoms: _3  and  _6
REMARK    4  A    between atoms: _6  and  _7
REMARK    5  A    between atoms: _10  and  _12
REMARK    6  A    between atoms: _12  and  _13
REMARK    7  A    between atoms: _12  and  _15
REMARK    8  A    between atoms: _15  and  _16
REMARK    9  A    between atoms: _19  and  _21
REMARK   10  A    between atoms: _21  and  _22
REMARK   11  A    between atoms: _24  and  _26
REMARK   12  A    between atoms: _26  and  _27
REMARK   13  A    between atoms: _26  and  _29
REMARK   14  A    between atoms: _29  and  _30
REMARK   15  A    between atoms: _35  and  _37
REMARK   16  A    between atoms: _37  and  _38
REMARK   17  A    between atoms: _37  and  _40
REMARK   18  A    between atoms: _40  and  _41
REMARK   19  A    between atoms: _41  and  _42
REMARK   20  A    between atoms: _42  and  _43
REMARK   21  A    between atoms: _52  and  _54
REMARK   22  A    between atoms: _54  and  _55
REMARK   23  A    between atoms: _54  and  _57
REMARK   24  A    between atoms: _57  and  _58
REMARK   25  A    between atoms: _61  and  _63
REMARK   26  A    between atoms: _63  and  _64
REMARK   27  A    between atoms: _63  and  _66
REMARK   28  A    between atoms: _66  and  _67
REMARK   29  A    between atoms: _72  and  _74
REMARK   30  A    between atoms: _74  and  _75
REMARK   31  A    between atoms: _74  and  _77
REMARK   32  A    between atoms: _77  and  _78
REMARK   33  A    between atoms: _81  and  _83
REMARK   34  A    between atoms: _83  and  _84
REMARK   35  A    between atoms: _83  and  _86
REMARK   36  A    between atoms: _86  and  _87
REMARK   37  A    between atoms: _92  and  _94
REMARK   38  A    between atoms: _94  and  _95
REMARK   39  A    between atoms: _94  and  _97
REMARK   40  A    between atoms: _97  and  _98
REMARK   41  A    between atoms: _98  and  _99
REMARK   42  A    between atoms: _99  and  _100
REMARK   43  A    between atoms: _109  and  _111
REMARK   44  A    between atoms: _111  and  _112
REMARK   45  A    between atoms: _111  and  _114
REMARK   46  A    between atoms: _114  and  _115
REMARK   47  A    between atoms: _120  and  _122
REMARK   48  A    between atoms: _122  and  _123
REMARK   49  A    between atoms: _125  and  _127
REMARK   50  A    between atoms: _127  and  _128
REMARK   51  A    between atoms: _127  and  _130
REMARK   52  A    between atoms: _130  and  _131
REMARK   53  A    between atoms: _134  and  _136
REMARK   54  A    between atoms: _136  and  _137
REMARK   55  A    between atoms: _136  and  _139
REMARK   56  A    between atoms: _141  and  _143
REMARK   57  A    between atoms: _143  and  _144
REMARK   58  A    between atoms: _143  and  _146
REMARK   59  A    between atoms: _146  and  _147
REMARK   60  A    between atoms: _147  and  _148
REMARK   61  A    between atoms: _148  and  _149
REMARK   62  A    between atoms: _158  and  _160
REMARK   63  A    between atoms: _160  and  _161
REMARK   64  A    between atoms: _160  and  _163
REMARK   65  A    between atoms: _163  and  _164
REMARK   66  A    between atoms: _164  and  _165
REMARK   67  A    between atoms: _167  and  _169
REMARK   68  A    between atoms: _169  and  _170
REMARK   69  A    between atoms: _169  and  _172
REMARK   70  A    between atoms: _172  and  _173
REMARK   71  A    between atoms: _176  and  _178
REMARK   72  A    between atoms: _178  and  _179
REMARK   73  A    between atoms: _178  and  _181
REMARK   74  A    between atoms: _181  and  _182
REMARK   75  A    between atoms: _185  and  _187
REMARK   76  A    between atoms: _187  and  _188
REMARK   77  A    between atoms: _190  and  _192
REMARK   78  A    between atoms: _192  and  _193
REMARK   79  A    between atoms: _192  and  _195
REMARK   80  A    between atoms: _195  and  _196
REMARK   81  A    between atoms: _196  and  _197
REMARK   82  A    between atoms: _200  and  _202
REMARK   83  A    between atoms: _202  and  _203
REMARK   84  A    between atoms: _202  and  _205
REMARK   85  A    between atoms: _208  and  _210
REMARK   86  A    between atoms: _210  and  _211
REMARK   87  A    between atoms: _210  and  _213
REMARK   88  A    between atoms: _213  and  _214
REMARK   89  A    between atoms: _217  and  _219
REMARK   90  A    between atoms: _219  and  _220
REMARK   91  A    between atoms: _219  and  _222
REMARK   92  A    between atoms: _222  and  _223
REMARK   93  A    between atoms: _226  and  _228
REMARK   94  A    between atoms: _228  and  _229
REMARK   95  A    between atoms: _232  and  _234
REMARK   96  A    between atoms: _234  and  _235
REMARK   97  A    between atoms: _234  and  _237
REMARK   98  A    between atoms: _240  and  _242
REMARK   99  A    between atoms: _242  and  _243
REMARK  100  A    between atoms: _242  and  _245
REMARK  101  A    between atoms: _245  and  _246
REMARK  102  A    between atoms: _246  and  _247
REMARK  103  A    between atoms: _250  and  _252
REMARK  104  A    between atoms: _252  and  _253
REMARK  105  A    between atoms: _256  and  _258
REMARK  106  A    between atoms: _258  and  _259
REMARK  107  A    between atoms: _262  and  _264
REMARK  108  A    between atoms: _264  and  _265
REMARK  109  A    between atoms: _264  and  _267
REMARK  110  A    between atoms: _267  and  _268
REMARK  111  A    between atoms: _270  and  _272
REMARK  112  A    between atoms: _272  and  _273
REMARK  113  A    between atoms: _272  and  _275
REMARK  114  A    between atoms: _275  and  _276
REMARK  115  A    between atoms: _286  and  _288
REMARK  116  A    between atoms: _288  and  _289
REMARK  117  A    between atoms: _292  and  _293
REMARK  118  A    between atoms: _298  and  _300
REMARK  119  A    between atoms: _300  and  _301
REMARK  120  A    between atoms: _300  and  _303
REMARK  121  A    between atoms: _303  and  _304
REMARK  122  A    between atoms: _304  and  _305
REMARK  123  A    between atoms: _308  and  _310
REMARK  124  A    between atoms: _310  and  _311
REMARK  125  A    between atoms: _310  and  _313
REMARK  126  A    between atoms: _313  and  _314
REMARK  127  A    between atoms: _317  and  _319
REMARK  128  A    between atoms: _319  and  _320
REMARK  129  A    between atoms: _319  and  _322
REMARK  130  A    between atoms: _322  and  _323
REMARK  131  A    between atoms: _326  and  _328
REMARK  132  A    between atoms: _328  and  _329
REMARK  133  A    between atoms: _328  and  _331
REMARK  134  A    between atoms: _331  and  _332
REMARK  135  A    between atoms: _335  and  _337
REMARK  136  A    between atoms: _337  and  _338
REMARK  137  A    between atoms: _337  and  _340
REMARK  138  A    between atoms: _343  and  _345
REMARK  139  A    between atoms: _345  and  _346
REMARK  140  A    between atoms: _345  and  _348
REMARK  141  A    between atoms: _348  and  _349
REMARK  142  A    between atoms: _352  and  _354
REMARK  143  A    between atoms: _354  and  _355
REMARK  144  A    between atoms: _358  and  _359
REMARK  145  A    between atoms: _364  and  _366
REMARK  146  A    between atoms: _366  and  _367
REMARK  147  A    between atoms: _370  and  _372
REMARK  148  A    between atoms: _372  and  _373
REMARK  149  A    between atoms: _372  and  _375
REMARK  150  A    between atoms: _375  and  _376
REMARK  151  A    between atoms: _376  and  _377
REMARK  152  A    between atoms: _377  and  _378
REMARK  153  A    between atoms: _387  and  _389
REMARK  154  A    between atoms: _389  and  _390
REMARK  155  A    between atoms: _389  and  _392
REMARK  156  A    between atoms: _392  and  _393
REMARK  157  A    between atoms: _396  and  _398
REMARK  158  A    between atoms: _398  and  _399
REMARK  159  A    between atoms: _402  and  _404
REMARK  160  A    between atoms: _404  and  _405
REMARK  161  A    between atoms: _404  and  _407
REMARK  162  A    between atoms: _407  and  _408
REMARK  163  A    between atoms: _408  and  _409
REMARK  164  A    between atoms: _412  and  _414
REMARK  165  A    between atoms: _414  and  _415
REMARK  166  A    between atoms: _414  and  _417
REMARK  167  A    between atoms: _417  and  _418
REMARK  168  A    between atoms: _428  and  _430
REMARK  169  A    between atoms: _430  and  _431
REMARK  170  A    between atoms: _434  and  _436
REMARK  171  A    between atoms: _436  and  _437
REMARK  172  A    between atoms: _436  and  _439
REMARK  173  A    between atoms: _439  and  _440
REMARK  174  A    between atoms: _442  and  _444
REMARK  175  A    between atoms: _444  and  _445
REMARK  176  A    between atoms: _447  and  _449
REMARK  177  A    between atoms: _449  and  _450
REMARK  178  A    between atoms: _449  and  _452
REMARK  179  A    between atoms: _452  and  _453
REMARK  180  A    between atoms: _458  and  _460
REMARK  181  A    between atoms: _460  and  _461
REMARK  182  A    between atoms: _463  and  _465
REMARK  183  A    between atoms: _465  and  _466
REMARK  184  A    between atoms: _465  and  _468
REMARK  185  A    between atoms: _468  and  _469
REMARK  186  A    between atoms: _469  and  _471
REMARK  187  A    between atoms: _471  and  CA_629
REMARK  188  A    between atoms: _472  and  _474
REMARK  189  A    between atoms: _474  and  _475
REMARK  190  A    between atoms: _474  and  _477
REMARK  191  A    between atoms: _477  and  _478
REMARK  192  A    between atoms: _480  and  _482
REMARK  193  A    between atoms: _482  and  _483
REMARK  194  A    between atoms: _482  and  _485
REMARK  195  A    between atoms: _487  and  _489
REMARK  196  A    between atoms: _489  and  _490
REMARK  197  A    between atoms: _489  and  _492
REMARK  198  A    between atoms: _494  and  _496
REMARK  199  A    between atoms: _496  and  _497
REMARK  200  A    between atoms: _496  and  _499
REMARK  201  A    between atoms: _499  and  _500
REMARK  202  A    between atoms: _503  and  _505
REMARK  203  A    between atoms: _505  and  _506
REMARK  204  A    between atoms: _508  and  _510
REMARK  205  A    between atoms: _510  and  _511
REMARK  206  A    between atoms: _510  and  _513
REMARK  207  A    between atoms: _513  and  _514
REMARK  208  A    between atoms: _519  and  _520
REMARK  209  A    between atoms: _522  and  _524
REMARK  210  A    between atoms: _524  and  _525
REMARK  211  A    between atoms: _524  and  _527
REMARK  212  A    between atoms: _527  and  _528
REMARK  213  A    between atoms: _531  and  _533
REMARK  214  A    between atoms: _533  and  _534
REMARK  215  A    between atoms: _533  and  _536
REMARK  216  A    between atoms: _536  and  _537
REMARK  217  A    between atoms: _542  and  _544
REMARK  218  A    between atoms: _544  and  _545
REMARK  219  A    between atoms: _544  and  _547
REMARK  220  A    between atoms: _547  and  _548
REMARK  221  A    between atoms: _551  and  _553
REMARK  222  A    between atoms: _553  and  _554
REMARK  223  A    between atoms: _553  and  _556
REMARK  224  A    between atoms: _556  and  _557
REMARK  225  A    between atoms: _559  and  _561
REMARK  226  A    between atoms: _561  and  _562
REMARK  227  A    between atoms: _561  and  _564
REMARK  228  A    between atoms: _564  and  _565
REMARK  229  A    between atoms: _568  and  _570
REMARK  230  A    between atoms: _570  and  _571
REMARK  231  A    between atoms: _570  and  _573
REMARK  232  A    between atoms: _573  and  _574
REMARK  233  A    between atoms: _574  and  _575
REMARK  234  A    between atoms: _578  and  _580
REMARK  235  A    between atoms: _580  and  _581
REMARK  236  A    between atoms: _580  and  _583
REMARK  237  A    between atoms: _583  and  _584
REMARK  238  A    between atoms: _587  and  _589
REMARK  239  A    between atoms: _589  and  _590
REMARK  240  A    between atoms: _592  and  _594
REMARK  241  A    between atoms: _594  and  _595
REMARK  242  A    between atoms: _594  and  _597
REMARK  243  A    between atoms: _597  and  _598
REMARK  244  A    between atoms: _601  and  _603
REMARK  245  A    between atoms: _603  and  _604
REMARK  246  A    between atoms: _603  and  _606
REMARK  247  A    between atoms: _606  and  _607
REMARK  248  A    between atoms: _609  and  _611
REMARK  249  A    between atoms: _611  and  _612
REMARK  250  A    between atoms: _615  and  _617
REMARK  251  A    between atoms: _617  and  _618
REMARK  252  A    between atoms: _617  and  _620
REMARK  253  A    between atoms: _620  and  _621
REMARK  254  A    between atoms: _623  and  _625
REMARK  255  A    between atoms: _625  and  _626
REMARK                            x       y       z     vdW  Elec       q    Type
REMARK                         _______ _______ _______ _____ _____    ______ ____
ROOT
ATOM      1  O   HOH     1      38.275  21.796  -4.372  0.00  0.00    +0.000 OA
ENDROOT
TORSDOF 0
REMARK  Name = ../refined-set-2016/4ryd/4ryd_pocket.pdb
REMARK  255 active torsions:
REMARK  status: ('A' for Active; 'I' for Inactive)
REMARK    1  A    between atoms: _1  and  _3
REMARK    2  A    between atoms: _3  and  _4
REMARK    3  A    between atoms: _3  and  _6
REMARK    4  A    between atoms: _6  and  _7
REMARK    5  A    between atoms: _10  and  _12
REMARK    6  A    between atoms: _12  and  _13
REMARK    7  A    between atoms: _12  and  _15
REMARK    8  A    between atoms: _15  and  _16
REMARK    9  A    between atoms: _19  and  _21
REMARK   10  A    between atoms: _21  and  _22
REMARK   11  A    between atoms: _24  and  _26
REMARK   12  A    between atoms: _26  and  _27
REMARK   13  A    between atoms: _26  and  _29
REMARK   14  A    between atoms: _29  and  _30
REMARK   15  A    between atoms: _35  and  _37
REMARK   16  A    between atoms: _37  and  _38
REMARK   17  A    between atoms: _37  and  _40
REMARK   18  A    between atoms: _40  and  _41
REMARK   19  A    between atoms: _41  and  _42
REMARK   20  A    between atoms: _42  and  _43
REMARK   21  A    between atoms: _52  and  _54
REMARK   22  A    between atoms: _54  and  _55
REMARK   23  A    between atoms: _54  and  _57
REMARK   24  A    between atoms: _57  and  _58
REMARK   25  A    between atoms: _61  and  _63
REMARK   26  A    between atoms: _63  and  _64
REMARK   27  A    between atoms: _63  and  _66
REMARK   28  A    between atoms: _66  and  _67
REMARK   29  A    between atoms: _72  and  _74
REMARK   30  A    between atoms: _74  and  _75
REMARK   31  A    between atoms: _74  and  _77
REMARK   32  A    between atoms: _77  and  _78
REMARK   33  A    between atoms: _81  and  _83
REMARK   34  A    between atoms: _83  and  _84
REMARK   35  A    between atoms: _83  and  _86
REMARK   36  A    between atoms: _86  and  _87
REMARK   37  A    between atoms: _92  and  _94
REMARK   38  A    between atoms: _94  and  _95
REMARK   39  A    between atoms: _94  and  _97
REMARK   40  A    between atoms: _97  and  _98
REMARK   41  A    between atoms: _98  and  _99
REMARK   42  A    between atoms: _99  and  _100
REMARK   43  A    between atoms: _109  and  _111
REMARK   44  A    between atoms: _111  and  _112
REMARK   45  A    between atoms: _111  and  _114
REMARK   46  A    between atoms: _114  and  _115
REMARK   47  A    between atoms: _120  and  _122
REMARK   48  A    between atoms: _122  and  _123
REMARK   49  A    between atoms: _125  and  _127
REMARK   50  A    between atoms: _127  and  _128
REMARK   51  A    between atoms: _127  and  _130
REMARK   52  A    between atoms: _130  and  _131
REMARK   53  A    between atoms: _134  and  _136
REMARK   54  A    between atoms: _136  and  _137
REMARK   55  A    between atoms: _136  and  _139
REMARK   56  A    between atoms: _141  and  _143
REMARK   57  A    between atoms: _143  and  _144
REMARK   58  A    between atoms: _143  and  _146
REMARK   59  A    between atoms: _146  and  _147
REMARK   60  A    between atoms: _147  and  _148
REMARK   61  A    between atoms: _148  and  _149
REMARK   62  A    between atoms: _158  and  _160
REMARK   63  A    between atoms: _160  and  _161
REMARK   64  A    between atoms: _160  and  _163
REMARK   65  A    between atoms: _163  and  _164
REMARK   66  A    between atoms: _164  and  _165
REMARK   67  A    between atoms: _167  and  _169
REMARK   68  A    between atoms: _169  and  _170
REMARK   69  A    between atoms: _169  and  _172
REMARK   70  A    between atoms: _172  and  _173
REMARK   71  A    between atoms: _176  and  _178
REMARK   72  A    between atoms: _178  and  _179
REMARK   73  A    between atoms: _178  and  _181
REMARK   74  A    between atoms: _181  and  _182
REMARK   75  A    between atoms: _185  and  _187
REMARK   76  A    between atoms: _187  and  _188
REMARK   77  A    between atoms: _190  and  _192
REMARK   78  A    between atoms: _192  and  _193
REMARK   79  A    between atoms: _192  and  _195
REMARK   80  A    between atoms: _195  and  _196
REMARK   81  A    between atoms: _196  and  _197
REMARK   82  A    between atoms: _200  and  _202
REMARK   83  A    between atoms: _202  and  _203
REMARK   84  A    between atoms: _202  and  _205
REMARK   85  A    between atoms: _208  and  _210
REMARK   86  A    between atoms: _210  and  _211
REMARK   87  A    between atoms: _210  and  _213
REMARK   88  A    between atoms: _213  and  _214
REMARK   89  A    between atoms: _217  and  _219
REMARK   90  A    between atoms: _219  and  _220
REMARK   91  A    between atoms: _219  and  _222
REMARK   92  A    between atoms: _222  and  _223
REMARK   93  A    between atoms: _226  and  _228
REMARK   94  A    between atoms: _228  and  _229
REMARK   95  A    between atoms: _232  and  _234
REMARK   96  A    between atoms: _234  and  _235
REMARK   97  A    between atoms: _234  and  _237
REMARK   98  A    between atoms: _240  and  _242
REMARK   99  A    between atoms: _242  and  _243
REMARK  100  A    between atoms: _242  and  _245
REMARK  101  A    between atoms: _245  and  _246
REMARK  102  A    between atoms: _246  and  _247
REMARK  103  A    between atoms: _250  and  _252
REMARK  104  A    between atoms: _252  and  _253
REMARK  105  A    between atoms: _256  and  _258
REMARK  106  A    between atoms: _258  and  _259
REMARK  107  A    between atoms: _262  and  _264
REMARK  108  A    between atoms: _264  and  _265
REMARK  109  A    between atoms: _264  and  _267
REMARK  110  A    between atoms: _267  and  _268
REMARK  111  A    between atoms: _270  and  _272
REMARK  112  A    between atoms: _272  and  _273
REMARK  113  A    between atoms: _272  and  _275
REMARK  114  A    between atoms: _275  and  _276
REMARK  115  A    between atoms: _286  and  _288
REMARK  116  A    between atoms: _288  and  _289
REMARK  117  A    between atoms: _292  and  _293
REMARK  118  A    between atoms: _298  and  _300
REMARK  119  A    between atoms: _300  and  _301
REMARK  120  A    between atoms: _300  and  _303
REMARK  121  A    between atoms: _303  and  _304
REMARK  122  A    between atoms: _304  and  _305
REMARK  123  A    between atoms: _308  and  _310
REMARK  124  A    between atoms: _310  and  _311
REMARK  125  A    between atoms: _310  and  _313
REMARK  126  A    between atoms: _313  and  _314
REMARK  127  A    between atoms: _317  and  _319
REMARK  128  A    between atoms: _319  and  _320
REMARK  129  A    between atoms: _319  and  _322
REMARK  130  A    between atoms: _322  and  _323
REMARK  131  A    between atoms: _326  and  _328
REMARK  132  A    between atoms: _328  and  _329
REMARK  133  A    between atoms: _328  and  _331
REMARK  134  A    between atoms: _331  and  _332
REMARK  135  A    between atoms: _335  and  _337
REMARK  136  A    between atoms: _337  and  _338
REMARK  137  A    between atoms: _337  and  _340
REMARK  138  A    between atoms: _343  and  _345
REMARK  139  A    between atoms: _345  and  _346
REMARK  140  A    between atoms: _345  and  _348
REMARK  141  A    between atoms: _348  and  _349
REMARK  142  A    between atoms: _352  and  _354
REMARK  143  A    between atoms: _354  and  _355
REMARK  144  A    between atoms: _358  and  _359
REMARK  145  A    between atoms: _364  and  _366
REMARK  146  A    between atoms: _366  and  _367
REMARK  147  A    between atoms: _370  and  _372
REMARK  148  A    between atoms: _372  and  _373
REMARK  149  A    between atoms: _372  and  _375
REMARK  150  A    between atoms: _375  and  _376
REMARK  151  A    between atoms: _376  and  _377
REMARK  152  A    between atoms: _377  and  _378
REMARK  153  A    between atoms: _387  and  _389
REMARK  154  A    between atoms: _389  and  _390
REMARK  155  A    between atoms: _389  and  _392
REMARK  156  A    between atoms: _392  and  _393
REMARK  157  A    between atoms: _396  and  _398
REMARK  158  A    between atoms: _398  and  _399
REMARK  159  A    between atoms: _402  and  _404
REMARK  160  A    between atoms: _404  and  _405
REMARK  161  A    between atoms: _404  and  _407
REMARK  162  A    between atoms: _407  and  _408
REMARK  163  A    between atoms: _408  and  _409
REMARK  164  A    between atoms: _412  and  _414
REMARK  165  A    between atoms: _414  and  _415
REMARK  166  A    between atoms: _414  and  _417
REMARK  167  A    between atoms: _417  and  _418
REMARK  168  A    between atoms: _428  and  _430
REMARK  169  A    between atoms: _430  and  _431
REMARK  170  A    between atoms: _434  and  _436
REMARK  171  A    between atoms: _436  and  _437
REMARK  172  A    between atoms: _436  and  _439
REMARK  173  A    between atoms: _439  and  _440
REMARK  174  A    between atoms: _442  and  _444
REMARK  175  A    between atoms: _444  and  _445
REMARK  176  A    between atoms: _447  and  _449
REMARK  177  A    between atoms: _449  and  _450
REMARK  178  A    between atoms: _449  and  _452
REMARK  179  A    between atoms: _452  and  _453
REMARK  180  A    between atoms: _458  and  _460
REMARK  181  A    between atoms: _460  and  _461
REMARK  182  A    between atoms: _463  and  _465
REMARK  183  A    between atoms: _465  and  _466
REMARK  184  A    between atoms: _465  and  _468
REMARK  185  A    between atoms: _468  and  _469
REMARK  186  A    between atoms: _469  and  _471
REMARK  187  A    between atoms: _471  and  CA_629
REMARK  188  A    between atoms: _472  and  _474
REMARK  189  A    between atoms: _474  and  _475
REMARK  190  A    between atoms: _474  and  _477
REMARK  191  A    between atoms: _477  and  _478
REMARK  192  A    between atoms: _480  and  _482
REMARK  193  A    between atoms: _482  and  _483
REMARK  194  A    between atoms: _482  and  _485
REMARK  195  A    between atoms: _487  and  _489
REMARK  196  A    between atoms: _489  and  _490
REMARK  197  A    between atoms: _489  and  _492
REMARK  198  A    between atoms: _494  and  _496
REMARK  199  A    between atoms: _496  and  _497
REMARK  200  A    between atoms: _496  and  _499
REMARK  201  A    between atoms: _499  and  _500
REMARK  202  A    between atoms: _503  and  _505
REMARK  203  A    between atoms: _505  and  _506
REMARK  204  A    between atoms: _508  and  _510
REMARK  205  A    between atoms: _510  and  _511
REMARK  206  A    between atoms: _510  and  _513
REMARK  207  A    between atoms: _513  and  _514
REMARK  208  A    between atoms: _519  and  _520
REMARK  209  A    between atoms: _522  and  _524
REMARK  210  A    between atoms: _524  and  _525
REMARK  211  A    between atoms: _524  and  _527
REMARK  212  A    between atoms: _527  and  _528
REMARK  213  A    between atoms: _531  and  _533
REMARK  214  A    between atoms: _533  and  _534
REMARK  215  A    between atoms: _533  and  _536
REMARK  216  A    between atoms: _536  and  _537
REMARK  217  A    between atoms: _542  and  _544
REMARK  218  A    between atoms: _544  and  _545
REMARK  219  A    between atoms: _544  and  _547
REMARK  220  A    between atoms: _547  and  _548
REMARK  221  A    between atoms: _551  and  _553
REMARK  222  A    between atoms: _553  and  _554
REMARK  223  A    between atoms: _553  and  _556
REMARK  224  A    between atoms: _556  and  _557
REMARK  225  A    between atoms: _559  and  _561
REMARK  226  A    between atoms: _561  and  _562
REMARK  227  A    between atoms: _561  and  _564
REMARK  228  A    between atoms: _564  and  _565
REMARK  229  A    between atoms: _568  and  _570
REMARK  230  A    between atoms: _570  and  _571
REMARK  231  A    between atoms: _570  and  _573
REMARK  232  A    between atoms: _573  and  _574
REMARK  233  A    between atoms: _574  and  _575
REMARK  234  A    between atoms: _578  and  _580
REMARK  235  A    between atoms: _580  and  _581
REMARK  236  A    between atoms: _580  and  _583
REMARK  237  A    between atoms: _583  and  _584
REMARK  238  A    between atoms: _587  and  _589
REMARK  239  A    between atoms: _589  and  _590
REMARK  240  A    between atoms: _592  and  _594
REMARK  241  A    between atoms: _594  and  _595
REMARK  242  A    between atoms: _594  and  _597
REMARK  243  A    between atoms: _597  and  _598
REMARK  244  A    between atoms: _601  and  _603
REMARK  245  A    between atoms: _603  and  _604
REMARK  246  A    between atoms: _603  and  _606
REMARK  247  A    between atoms: _606  and  _607
REMARK  248  A    between atoms: _609  and  _611
REMARK  249  A    between atoms: _611  and  _612
REMARK  250  A    between atoms: _615  and  _617
REMARK  251  A    between atoms: _617  and  _618
REMARK  252  A    between atoms: _617  and  _620
REMARK  253  A    between atoms: _620  and  _621
REMARK  254  A    between atoms: _623  and  _625
REMARK  255  A    between atoms: _625  and  _626
REMARK                            x       y       z     vdW  Elec       q    Type
REMARK                         _______ _______ _______ _____ _____    ______ ____
ROOT
ATOM      1  O   HOH     1      21.843  30.406  -9.765  0.00  0.00    +0.000 OA
ENDROOT
TORSDOF 0
REMARK  Name = ../refined-set-2016/4ryd/4ryd_pocket.pdb
REMARK  255 active torsions:
REMARK  status: ('A' for Active; 'I' for Inactive)
REMARK    1  A    between atoms: _1  and  _3
REMARK    2  A    between atoms: _3  and  _4
REMARK    3  A    between atoms: _3  and  _6
REMARK    4  A    between atoms: _6  and  _7
REMARK    5  A    between atoms: _10  and  _12
REMARK    6  A    between atoms: _12  and  _13
REMARK    7  A    between atoms: _12  and  _15
REMARK    8  A    between atoms: _15  and  _16
REMARK    9  A    between atoms: _19  and  _21
REMARK   10  A    between atoms: _21  and  _22
REMARK   11  A    between atoms: _24  and  _26
REMARK   12  A    between atoms: _26  and  _27
REMARK   13  A    between atoms: _26  and  _29
REMARK   14  A    between atoms: _29  and  _30
REMARK   15  A    between atoms: _35  and  _37
REMARK   16  A    between atoms: _37  and  _38
REMARK   17  A    between atoms: _37  and  _40
REMARK   18  A    between atoms: _40  and  _41
REMARK   19  A    between atoms: _41  and  _42
REMARK   20  A    between atoms: _42  and  _43
REMARK   21  A    between atoms: _52  and  _54
REMARK   22  A    between atoms: _54  and  _55
REMARK   23  A    between atoms: _54  and  _57
REMARK   24  A    between atoms: _57  and  _58
REMARK   25  A    between atoms: _61  and  _63
REMARK   26  A    between atoms: _63  and  _64
REMARK   27  A    between atoms: _63  and  _66
REMARK   28  A    between atoms: _66  and  _67
REMARK   29  A    between atoms: _72  and  _74
REMARK   30  A    between atoms: _74  and  _75
REMARK   31  A    between atoms: _74  and  _77
REMARK   32  A    between atoms: _77  and  _78
REMARK   33  A    between atoms: _81  and  _83
REMARK   34  A    between atoms: _83  and  _84
REMARK   35  A    between atoms: _83  and  _86
REMARK   36  A    between atoms: _86  and  _87
REMARK   37  A    between atoms: _92  and  _94
REMARK   38  A    between atoms: _94  and  _95
REMARK   39  A    between atoms: _94  and  _97
REMARK   40  A    between atoms: _97  and  _98
REMARK   41  A    between atoms: _98  and  _99
REMARK   42  A    between atoms: _99  and  _100
REMARK   43  A    between atoms: _109  and  _111
REMARK   44  A    between atoms: _111  and  _112
REMARK   45  A    between atoms: _111  and  _114
REMARK   46  A    between atoms: _114  and  _115
REMARK   47  A    between atoms: _120  and  _122
REMARK   48  A    between atoms: _122  and  _123
REMARK   49  A    between atoms: _125  and  _127
REMARK   50  A    between atoms: _127  and  _128
REMARK   51  A    between atoms: _127  and  _130
REMARK   52  A    between atoms: _130  and  _131
REMARK   53  A    between atoms: _134  and  _136
REMARK   54  A    between atoms: _136  and  _137
REMARK   55  A    between atoms: _136  and  _139
REMARK   56  A    between atoms: _141  and  _143
REMARK   57  A    between atoms: _143  and  _144
REMARK   58  A    between atoms: _143  and  _146
REMARK   59  A    between atoms: _146  and  _147
REMARK   60  A    between atoms: _147  and  _148
REMARK   61  A    between atoms: _148  and  _149
REMARK   62  A    between atoms: _158  and  _160
REMARK   63  A    between atoms: _160  and  _161
REMARK   64  A    between atoms: _160  and  _163
REMARK   65  A    between atoms: _163  and  _164
REMARK   66  A    between atoms: _164  and  _165
REMARK   67  A    between atoms: _167  and  _169
REMARK   68  A    between atoms: _169  and  _170
REMARK   69  A    between atoms: _169  and  _172
REMARK   70  A    between atoms: _172  and  _173
REMARK   71  A    between atoms: _176  and  _178
REMARK   72  A    between atoms: _178  and  _179
REMARK   73  A    between atoms: _178  and  _181
REMARK   74  A    between atoms: _181  and  _182
REMARK   75  A    between atoms: _185  and  _187
REMARK   76  A    between atoms: _187  and  _188
REMARK   77  A    between atoms: _190  and  _192
REMARK   78  A    between atoms: _192  and  _193
REMARK   79  A    between atoms: _192  and  _195
REMARK   80  A    between atoms: _195  and  _196
REMARK   81  A    between atoms: _196  and  _197
REMARK   82  A    between atoms: _200  and  _202
REMARK   83  A    between atoms: _202  and  _203
REMARK   84  A    between atoms: _202  and  _205
REMARK   85  A    between atoms: _208  and  _210
REMARK   86  A    between atoms: _210  and  _211
REMARK   87  A    between atoms: _210  and  _213
REMARK   88  A    between atoms: _213  and  _214
REMARK   89  A    between atoms: _217  and  _219
REMARK   90  A    between atoms: _219  and  _220
REMARK   91  A    between atoms: _219  and  _222
REMARK   92  A    between atoms: _222  and  _223
REMARK   93  A    between atoms: _226  and  _228
REMARK   94  A    between atoms: _228  and  _229
REMARK   95  A    between atoms: _232  and  _234
REMARK   96  A    between atoms: _234  and  _235
REMARK   97  A    between atoms: _234  and  _237
REMARK   98  A    between atoms: _240  and  _242
REMARK   99  A    between atoms: _242  and  _243
REMARK  100  A    between atoms: _242  and  _245
REMARK  101  A    between atoms: _245  and  _246
REMARK  102  A    between atoms: _246  and  _247
REMARK  103  A    between atoms: _250  and  _252
REMARK  104  A    between atoms: _252  and  _253
REMARK  105  A    between atoms: _256  and  _258
REMARK  106  A    between atoms: _258  and  _259
REMARK  107  A    between atoms: _262  and  _264
REMARK  108  A    between atoms: _264  and  _265
REMARK  109  A    between atoms: _264  and  _267
REMARK  110  A    between atoms: _267  and  _268
REMARK  111  A    between atoms: _270  and  _272
REMARK  112  A    between atoms: _272  and  _273
REMARK  113  A    between atoms: _272  and  _275
REMARK  114  A    between atoms: _275  and  _276
REMARK  115  A    between atoms: _286  and  _288
REMARK  116  A    between atoms: _288  and  _289
REMARK  117  A    between atoms: _292  and  _293
REMARK  118  A    between atoms: _298  and  _300
REMARK  119  A    between atoms: _300  and  _301
REMARK  120  A    between atoms: _300  and  _303
REMARK  121  A    between atoms: _303  and  _304
REMARK  122  A    between atoms: _304  and  _305
REMARK  123  A    between atoms: _308  and  _310
REMARK  124  A    between atoms: _310  and  _311
REMARK  125  A    between atoms: _310  and  _313
REMARK  126  A    between atoms: _313  and  _314
REMARK  127  A    between atoms: _317  and  _319
REMARK  128  A    between atoms: _319  and  _320
REMARK  129  A    between atoms: _319  and  _322
REMARK  130  A    between atoms: _322  and  _323
REMARK  131  A    between atoms: _326  and  _328
REMARK  132  A    between atoms: _328  and  _329
REMARK  133  A    between atoms: _328  and  _331
REMARK  134  A    between atoms: _331  and  _332
REMARK  135  A    between atoms: _335  and  _337
REMARK  136  A    between atoms: _337  and  _338
REMARK  137  A    between atoms: _337  and  _340
REMARK  138  A    between atoms: _343  and  _345
REMARK  139  A    between atoms: _345  and  _346
REMARK  140  A    between atoms: _345  and  _348
REMARK  141  A    between atoms: _348  and  _349
REMARK  142  A    between atoms: _352  and  _354
REMARK  143  A    between atoms: _354  and  _355
REMARK  144  A    between atoms: _358  and  _359
REMARK  145  A    between atoms: _364  and  _366
REMARK  146  A    between atoms: _366  and  _367
REMARK  147  A    between atoms: _370  and  _372
REMARK  148  A    between atoms: _372  and  _373
REMARK  149  A    between atoms: _372  and  _375
REMARK  150  A    between atoms: _375  and  _376
REMARK  151  A    between atoms: _376  and  _377
REMARK  152  A    between atoms: _377  and  _378
REMARK  153  A    between atoms: _387  and  _389
REMARK  154  A    between atoms: _389  and  _390
REMARK  155  A    between atoms: _389  and  _392
REMARK  156  A    between atoms: _392  and  _393
REMARK  157  A    between atoms: _396  and  _398
REMARK  158  A    between atoms: _398  and  _399
REMARK  159  A    between atoms: _402  and  _404
REMARK  160  A    between atoms: _404  and  _405
REMARK  161  A    between atoms: _404  and  _407
REMARK  162  A    between atoms: _407  and  _408
REMARK  163  A    between atoms: _408  and  _409
REMARK  164  A    between atoms: _412  and  _414
REMARK  165  A    between atoms: _414  and  _415
REMARK  166  A    between atoms: _414  and  _417
REMARK  167  A    between atoms: _417  and  _418
REMARK  168  A    between atoms: _428  and  _430
REMARK  169  A    between atoms: _430  and  _431
REMARK  170  A    between atoms: _434  and  _436
REMARK  171  A    between atoms: _436  and  _437
REMARK  172  A    between atoms: _436  and  _439
REMARK  173  A    between atoms: _439  and  _440
REMARK  174  A    between atoms: _442  and  _444
REMARK  175  A    between atoms: _444  and  _445
REMARK  176  A    between atoms: _447  and  _449
REMARK  177  A    between atoms: _449  and  _450
REMARK  178  A    between atoms: _449  and  _452
REMARK  179  A    between atoms: _452  and  _453
REMARK  180  A    between atoms: _458  and  _460
REMARK  181  A    between atoms: _460  and  _461
REMARK  182  A    between atoms: _463  and  _465
REMARK  183  A    between atoms: _465  and  _466
REMARK  184  A    between atoms: _465  and  _468
REMARK  185  A    between atoms: _468  and  _469
REMARK  186  A    between atoms: _469  and  _471
REMARK  187  A    between atoms: _471  and  CA_629
REMARK  188  A    between atoms: _472  and  _474
REMARK  189  A    between atoms: _474  and  _475
REMARK  190  A    between atoms: _474  and  _477
REMARK  191  A    between atoms: _477  and  _478
REMARK  192  A    between atoms: _480  and  _482
REMARK  193  A    between atoms: _482  and  _483
REMARK  194  A    between atoms: _482  and  _485
REMARK  195  A    between atoms: _487  and  _489
REMARK  196  A    between atoms: _489  and  _490
REMARK  197  A    between atoms: _489  and  _492
REMARK  198  A    between atoms: _494  and  _496
REMARK  199  A    between atoms: _496  and  _497
REMARK  200  A    between atoms: _496  and  _499
REMARK  201  A    between atoms: _499  and  _500
REMARK  202  A    between atoms: _503  and  _505
REMARK  203  A    between atoms: _505  and  _506
REMARK  204  A    between atoms: _508  and  _510
REMARK  205  A    between atoms: _510  and  _511
REMARK  206  A    between atoms: _510  and  _513
REMARK  207  A    between atoms: _513  and  _514
REMARK  208  A    between atoms: _519  and  _520
REMARK  209  A    between atoms: _522  and  _524
REMARK  210  A    between atoms: _524  and  _525
REMARK  211  A    between atoms: _524  and  _527
REMARK  212  A    between atoms: _527  and  _528
REMARK  213  A    between atoms: _531  and  _533
REMARK  214  A    between atoms: _533  and  _534
REMARK  215  A    between atoms: _533  and  _536
REMARK  216  A    between atoms: _536  and  _537
REMARK  217  A    between atoms: _542  and  _544
REMARK  218  A    between atoms: _544  and  _545
REMARK  219  A    between atoms: _544  and  _547
REMARK  220  A    between atoms: _547  and  _548
REMARK  221  A    between atoms: _551  and  _553
REMARK  222  A    between atoms: _553  and  _554
REMARK  223  A    between atoms: _553  and  _556
REMARK  224  A    between atoms: _556  and  _557
REMARK  225  A    between atoms: _559  and  _561
REMARK  226  A    between atoms: _561  and  _562
REMARK  227  A    between atoms: _561  and  _564
REMARK  228  A    between atoms: _564  and  _565
REMARK  229  A    between atoms: _568  and  _570
REMARK  230  A    between atoms: _570  and  _571
REMARK  231  A    between atoms: _570  and  _573
REMARK  232  A    between atoms: _573  and  _574
REMARK  233  A    between atoms: _574  and  _575
REMARK  234  A    between atoms: _578  and  _580
REMARK  235  A    between atoms: _580  and  _581
REMARK  236  A    between atoms: _580  and  _583
REMARK  237  A    between atoms: _583  and  _584
REMARK  238  A    between atoms: _587  and  _589
REMARK  239  A    between atoms: _589  and  _590
REMARK  240  A    between atoms: _592  and  _594
REMARK  241  A    between atoms: _594  and  _595
REMARK  242  A    between atoms: _594  and  _597
REMARK  243  A    between atoms: _597  and  _598
REMARK  244  A    between atoms: _601  and  _603
REMARK  245  A    between atoms: _603  and  _604
REMARK  246  A    between atoms: _603  and  _606
REMARK  247  A    between atoms: _606  and  _607
REMARK  248  A    between atoms: _609  and  _611
REMARK  249  A    between atoms: _611  and  _612
REMARK  250  A    between atoms: _615  and  _617
REMARK  251  A    between atoms: _617  and  _618
REMARK  252  A    between atoms: _617  and  _620
REMARK  253  A    between atoms: _620  and  _621
REMARK  254  A    between atoms: _623  and  _625
REMARK  255  A    between atoms: _625  and  _626
REMARK                            x       y       z     vdW  Elec       q    Type
REMARK                         _______ _______ _______ _____ _____    ______ ____
ROOT
ATOM      1  O   HOH     1      24.005  29.597 -11.502  0.00  0.00    +0.000 OA
ENDROOT
TORSDOF 0
REMARK  Name = ../refined-set-2016/4ryd/4ryd_pocket.pdb
REMARK  255 active torsions:
REMARK  status: ('A' for Active; 'I' for Inactive)
REMARK    1  A    between atoms: _1  and  _3
REMARK    2  A    between atoms: _3  and  _4
REMARK    3  A    between atoms: _3  and  _6
REMARK    4  A    between atoms: _6  and  _7
REMARK    5  A    between atoms: _10  and  _12
REMARK    6  A    between atoms: _12  and  _13
REMARK    7  A    between atoms: _12  and  _15
REMARK    8  A    between atoms: _15  and  _16
REMARK    9  A    between atoms: _19  and  _21
REMARK   10  A    between atoms: _21  and  _22
REMARK   11  A    between atoms: _24  and  _26
REMARK   12  A    between atoms: _26  and  _27
REMARK   13  A    between atoms: _26  and  _29
REMARK   14  A    between atoms: _29  and  _30
REMARK   15  A    between atoms: _35  and  _37
REMARK   16  A    between atoms: _37  and  _38
REMARK   17  A    between atoms: _37  and  _40
REMARK   18  A    between atoms: _40  and  _41
REMARK   19  A    between atoms: _41  and  _42
REMARK   20  A    between atoms: _42  and  _43
REMARK   21  A    between atoms: _52  and  _54
REMARK   22  A    between atoms: _54  and  _55
REMARK   23  A    between atoms: _54  and  _57
REMARK   24  A    between atoms: _57  and  _58
REMARK   25  A    between atoms: _61  and  _63
REMARK   26  A    between atoms: _63  and  _64
REMARK   27  A    between atoms: _63  and  _66
REMARK   28  A    between atoms: _66  and  _67
REMARK   29  A    between atoms: _72  and  _74
REMARK   30  A    between atoms: _74  and  _75
REMARK   31  A    between atoms: _74  and  _77
REMARK   32  A    between atoms: _77  and  _78
REMARK   33  A    between atoms: _81  and  _83
REMARK   34  A    between atoms: _83  and  _84
REMARK   35  A    between atoms: _83  and  _86
REMARK   36  A    between atoms: _86  and  _87
REMARK   37  A    between atoms: _92  and  _94
REMARK   38  A    between atoms: _94  and  _95
REMARK   39  A    between atoms: _94  and  _97
REMARK   40  A    between atoms: _97  and  _98
REMARK   41  A    between atoms: _98  and  _99
REMARK   42  A    between atoms: _99  and  _100
REMARK   43  A    between atoms: _109  and  _111
REMARK   44  A    between atoms: _111  and  _112
REMARK   45  A    between atoms: _111  and  _114
REMARK   46  A    between atoms: _114  and  _115
REMARK   47  A    between atoms: _120  and  _122
REMARK   48  A    between atoms: _122  and  _123
REMARK   49  A    between atoms: _125  and  _127
REMARK   50  A    between atoms: _127  and  _128
REMARK   51  A    between atoms: _127  and  _130
REMARK   52  A    between atoms: _130  and  _131
REMARK   53  A    between atoms: _134  and  _136
REMARK   54  A    between atoms: _136  and  _137
REMARK   55  A    between atoms: _136  and  _139
REMARK   56  A    between atoms: _141  and  _143
REMARK   57  A    between atoms: _143  and  _144
REMARK   58  A    between atoms: _143  and  _146
REMARK   59  A    between atoms: _146  and  _147
REMARK   60  A    between atoms: _147  and  _148
REMARK   61  A    between atoms: _148  and  _149
REMARK   62  A    between atoms: _158  and  _160
REMARK   63  A    between atoms: _160  and  _161
REMARK   64  A    between atoms: _160  and  _163
REMARK   65  A    between atoms: _163  and  _164
REMARK   66  A    between atoms: _164  and  _165
REMARK   67  A    between atoms: _167  and  _169
REMARK   68  A    between atoms: _169  and  _170
REMARK   69  A    between atoms: _169  and  _172
REMARK   70  A    between atoms: _172  and  _173
REMARK   71  A    between atoms: _176  and  _178
REMARK   72  A    between atoms: _178  and  _179
REMARK   73  A    between atoms: _178  and  _181
REMARK   74  A    between atoms: _181  and  _182
REMARK   75  A    between atoms: _185  and  _187
REMARK   76  A    between atoms: _187  and  _188
REMARK   77  A    between atoms: _190  and  _192
REMARK   78  A    between atoms: _192  and  _193
REMARK   79  A    between atoms: _192  and  _195
REMARK   80  A    between atoms: _195  and  _196
REMARK   81  A    between atoms: _196  and  _197
REMARK   82  A    between atoms: _200  and  _202
REMARK   83  A    between atoms: _202  and  _203
REMARK   84  A    between atoms: _202  and  _205
REMARK   85  A    between atoms: _208  and  _210
REMARK   86  A    between atoms: _210  and  _211
REMARK   87  A    between atoms: _210  and  _213
REMARK   88  A    between atoms: _213  and  _214
REMARK   89  A    between atoms: _217  and  _219
REMARK   90  A    between atoms: _219  and  _220
REMARK   91  A    between atoms: _219  and  _222
REMARK   92  A    between atoms: _222  and  _223
REMARK   93  A    between atoms: _226  and  _228
REMARK   94  A    between atoms: _228  and  _229
REMARK   95  A    between atoms: _232  and  _234
REMARK   96  A    between atoms: _234  and  _235
REMARK   97  A    between atoms: _234  and  _237
REMARK   98  A    between atoms: _240  and  _242
REMARK   99  A    between atoms: _242  and  _243
REMARK  100  A    between atoms: _242  and  _245
REMARK  101  A    between atoms: _245  and  _246
REMARK  102  A    between atoms: _246  and  _247
REMARK  103  A    between atoms: _250  and  _252
REMARK  104  A    between atoms: _252  and  _253
REMARK  105  A    between atoms: _256  and  _258
REMARK  106  A    between atoms: _258  and  _259
REMARK  107  A    between atoms: _262  and  _264
REMARK  108  A    between atoms: _264  and  _265
REMARK  109  A    between atoms: _264  and  _267
REMARK  110  A    between atoms: _267  and  _268
REMARK  111  A    between atoms: _270  and  _272
REMARK  112  A    between atoms: _272  and  _273
REMARK  113  A    between atoms: _272  and  _275
REMARK  114  A    between atoms: _275  and  _276
REMARK  115  A    between atoms: _286  and  _288
REMARK  116  A    between atoms: _288  and  _289
REMARK  117  A    between atoms: _292  and  _293
REMARK  118  A    between atoms: _298  and  _300
REMARK  119  A    between atoms: _300  and  _301
REMARK  120  A    between atoms: _300  and  _303
REMARK  121  A    between atoms: _303  and  _304
REMARK  122  A    between atoms: _304  and  _305
REMARK  123  A    between atoms: _308  and  _310
REMARK  124  A    between atoms: _310  and  _311
REMARK  125  A    between atoms: _310  and  _313
REMARK  126  A    between atoms: _313  and  _314
REMARK  127  A    between atoms: _317  and  _319
REMARK  128  A    between atoms: _319  and  _320
REMARK  129  A    between atoms: _319  and  _322
REMARK  130  A    between atoms: _322  and  _323
REMARK  131  A    between atoms: _326  and  _328
REMARK  132  A    between atoms: _328  and  _329
REMARK  133  A    between atoms: _328  and  _331
REMARK  134  A    between atoms: _331  and  _332
REMARK  135  A    between atoms: _335  and  _337
REMARK  136  A    between atoms: _337  and  _338
REMARK  137  A    between atoms: _337  and  _340
REMARK  138  A    between atoms: _343  and  _345
REMARK  139  A    between atoms: _345  and  _346
REMARK  140  A    between atoms: _345  and  _348
REMARK  141  A    between atoms: _348  and  _349
REMARK  142  A    between atoms: _352  and  _354
REMARK  143  A    between atoms: _354  and  _355
REMARK  144  A    between atoms: _358  and  _359
REMARK  145  A    between atoms: _364  and  _366
REMARK  146  A    between atoms: _366  and  _367
REMARK  147  A    between atoms: _370  and  _372
REMARK  148  A    between atoms: _372  and  _373
REMARK  149  A    between atoms: _372  and  _375
REMARK  150  A    between atoms: _375  and  _376
REMARK  151  A    between atoms: _376  and  _377
REMARK  152  A    between atoms: _377  and  _378
REMARK  153  A    between atoms: _387  and  _389
REMARK  154  A    between atoms: _389  and  _390
REMARK  155  A    between atoms: _389  and  _392
REMARK  156  A    between atoms: _392  and  _393
REMARK  157  A    between atoms: _396  and  _398
REMARK  158  A    between atoms: _398  and  _399
REMARK  159  A    between atoms: _402  and  _404
REMARK  160  A    between atoms: _404  and  _405
REMARK  161  A    between atoms: _404  and  _407
REMARK  162  A    between atoms: _407  and  _408
REMARK  163  A    between atoms: _408  and  _409
REMARK  164  A    between atoms: _412  and  _414
REMARK  165  A    between atoms: _414  and  _415
REMARK  166  A    between atoms: _414  and  _417
REMARK  167  A    between atoms: _417  and  _418
REMARK  168  A    between atoms: _428  and  _430
REMARK  169  A    between atoms: _430  and  _431
REMARK  170  A    between atoms: _434  and  _436
REMARK  171  A    between atoms: _436  and  _437
REMARK  172  A    between atoms: _436  and  _439
REMARK  173  A    between atoms: _439  and  _440
REMARK  174  A    between atoms: _442  and  _444
REMARK  175  A    between atoms: _444  and  _445
REMARK  176  A    between atoms: _447  and  _449
REMARK  177  A    between atoms: _449  and  _450
REMARK  178  A    between atoms: _449  and  _452
REMARK  179  A    between atoms: _452  and  _453
REMARK  180  A    between atoms: _458  and  _460
REMARK  181  A    between atoms: _460  and  _461
REMARK  182  A    between atoms: _463  and  _465
REMARK  183  A    between atoms: _465  and  _466
REMARK  184  A    between atoms: _465  and  _468
REMARK  185  A    between atoms: _468  and  _469
REMARK  186  A    between atoms: _469  and  _471
REMARK  187  A    between atoms: _471  and  CA_629
REMARK  188  A    between atoms: _472  and  _474
REMARK  189  A    between atoms: _474  and  _475
REMARK  190  A    between atoms: _474  and  _477
REMARK  191  A    between atoms: _477  and  _478
REMARK  192  A    between atoms: _480  and  _482
REMARK  193  A    between atoms: _482  and  _483
REMARK  194  A    between atoms: _482  and  _485
REMARK  195  A    between atoms: _487  and  _489
REMARK  196  A    between atoms: _489  and  _490
REMARK  197  A    between atoms: _489  and  _492
REMARK  198  A    between atoms: _494  and  _496
REMARK  199  A    between atoms: _496  and  _497
REMARK  200  A    between atoms: _496  and  _499
REMARK  201  A    between atoms: _499  and  _500
REMARK  202  A    between atoms: _503  and  _505
REMARK  203  A    between atoms: _505  and  _506
REMARK  204  A    between atoms: _508  and  _510
REMARK  205  A    between atoms: _510  and  _511
REMARK  206  A    between atoms: _510  and  _513
REMARK  207  A    between atoms: _513  and  _514
REMARK  208  A    between atoms: _519  and  _520
REMARK  209  A    between atoms: _522  and  _524
REMARK  210  A    between atoms: _524  and  _525
REMARK  211  A    between atoms: _524  and  _527
REMARK  212  A    between atoms: _527  and  _528
REMARK  213  A    between atoms: _531  and  _533
REMARK  214  A    between atoms: _533  and  _534
REMARK  215  A    between atoms: _533  and  _536
REMARK  216  A    between atoms: _536  and  _537
REMARK  217  A    between atoms: _542  and  _544
REMARK  218  A    between atoms: _544  and  _545
REMARK  219  A    between atoms: _544  and  _547
REMARK  220  A    between atoms: _547  and  _548
REMARK  221  A    between atoms: _551  and  _553
REMARK  222  A    between atoms: _553  and  _554
REMARK  223  A    between atoms: _553  and  _556
REMARK  224  A    between atoms: _556  and  _557
REMARK  225  A    between atoms: _559  and  _561
REMARK  226  A    between atoms: _561  and  _562
REMARK  227  A    between atoms: _561  and  _564
REMARK  228  A    between atoms: _564  and  _565
REMARK  229  A    between atoms: _568  and  _570
REMARK  230  A    between atoms: _570  and  _571
REMARK  231  A    between atoms: _570  and  _573
REMARK  232  A    between atoms: _573  and  _574
REMARK  233  A    between atoms: _574  and  _575
REMARK  234  A    between atoms: _578  and  _580
REMARK  235  A    between atoms: _580  and  _581
REMARK  236  A    between atoms: _580  and  _583
REMARK  237  A    between atoms: _583  and  _584
REMARK  238  A    between atoms: _587  and  _589
REMARK  239  A    between atoms: _589  and  _590
REMARK  240  A    between atoms: _592  and  _594
REMARK  241  A    between atoms: _594  and  _595
REMARK  242  A    between atoms: _594  and  _597
REMARK  243  A    between atoms: _597  and  _598
REMARK  244  A    between atoms: _601  and  _603
REMARK  245  A    between atoms: _603  and  _604
REMARK  246  A    between atoms: _603  and  _606
REMARK  247  A    between atoms: _606  and  _607
REMARK  248  A    between atoms: _609  and  _611
REMARK  249  A    between atoms: _611  and  _612
REMARK  250  A    between atoms: _615  and  _617
REMARK  251  A    between atoms: _617  and  _618
REMARK  252  A    between atoms: _617  and  _620
REMARK  253  A    between atoms: _620  and  _621
REMARK  254  A    between atoms: _623  and  _625
REMARK  255  A    between atoms: _625  and  _626
REMARK                            x       y       z     vdW  Elec       q    Type
REMARK                         _______ _______ _______ _____ _____    ______ ____
ROOT
ATOM      1  O   HOH     1      39.749  17.904  -1.110  0.00  0.00    +0.000 OA
ENDROOT
TORSDOF 0
REMARK  Name = ../refined-set-2016/4ryd/4ryd_pocket.pdb
REMARK  255 active torsions:
REMARK  status: ('A' for Active; 'I' for Inactive)
REMARK    1  A    between atoms: _1  and  _3
REMARK    2  A    between atoms: _3  and  _4
REMARK    3  A    between atoms: _3  and  _6
REMARK    4  A    between atoms: _6  and  _7
REMARK    5  A    between atoms: _10  and  _12
REMARK    6  A    between atoms: _12  and  _13
REMARK    7  A    between atoms: _12  and  _15
REMARK    8  A    between atoms: _15  and  _16
REMARK    9  A    between atoms: _19  and  _21
REMARK   10  A    between atoms: _21  and  _22
REMARK   11  A    between atoms: _24  and  _26
REMARK   12  A    between atoms: _26  and  _27
REMARK   13  A    between atoms: _26  and  _29
REMARK   14  A    between atoms: _29  and  _30
REMARK   15  A    between atoms: _35  and  _37
REMARK   16  A    between atoms: _37  and  _38
REMARK   17  A    between atoms: _37  and  _40
REMARK   18  A    between atoms: _40  and  _41
REMARK   19  A    between atoms: _41  and  _42
REMARK   20  A    between atoms: _42  and  _43
REMARK   21  A    between atoms: _52  and  _54
REMARK   22  A    between atoms: _54  and  _55
REMARK   23  A    between atoms: _54  and  _57
REMARK   24  A    between atoms: _57  and  _58
REMARK   25  A    between atoms: _61  and  _63
REMARK   26  A    between atoms: _63  and  _64
REMARK   27  A    between atoms: _63  and  _66
REMARK   28  A    between atoms: _66  and  _67
REMARK   29  A    between atoms: _72  and  _74
REMARK   30  A    between atoms: _74  and  _75
REMARK   31  A    between atoms: _74  and  _77
REMARK   32  A    between atoms: _77  and  _78
REMARK   33  A    between atoms: _81  and  _83
REMARK   34  A    between atoms: _83  and  _84
REMARK   35  A    between atoms: _83  and  _86
REMARK   36  A    between atoms: _86  and  _87
REMARK   37  A    between atoms: _92  and  _94
REMARK   38  A    between atoms: _94  and  _95
REMARK   39  A    between atoms: _94  and  _97
REMARK   40  A    between atoms: _97  and  _98
REMARK   41  A    between atoms: _98  and  _99
REMARK   42  A    between atoms: _99  and  _100
REMARK   43  A    between atoms: _109  and  _111
REMARK   44  A    between atoms: _111  and  _112
REMARK   45  A    between atoms: _111  and  _114
REMARK   46  A    between atoms: _114  and  _115
REMARK   47  A    between atoms: _120  and  _122
REMARK   48  A    between atoms: _122  and  _123
REMARK   49  A    between atoms: _125  and  _127
REMARK   50  A    between atoms: _127  and  _128
REMARK   51  A    between atoms: _127  and  _130
REMARK   52  A    between atoms: _130  and  _131
REMARK   53  A    between atoms: _134  and  _136
REMARK   54  A    between atoms: _136  and  _137
REMARK   55  A    between atoms: _136  and  _139
REMARK   56  A    between atoms: _141  and  _143
REMARK   57  A    between atoms: _143  and  _144
REMARK   58  A    between atoms: _143  and  _146
REMARK   59  A    between atoms: _146  and  _147
REMARK   60  A    between atoms: _147  and  _148
REMARK   61  A    between atoms: _148  and  _149
REMARK   62  A    between atoms: _158  and  _160
REMARK   63  A    between atoms: _160  and  _161
REMARK   64  A    between atoms: _160  and  _163
REMARK   65  A    between atoms: _163  and  _164
REMARK   66  A    between atoms: _164  and  _165
REMARK   67  A    between atoms: _167  and  _169
REMARK   68  A    between atoms: _169  and  _170
REMARK   69  A    between atoms: _169  and  _172
REMARK   70  A    between atoms: _172  and  _173
REMARK   71  A    between atoms: _176  and  _178
REMARK   72  A    between atoms: _178  and  _179
REMARK   73  A    between atoms: _178  and  _181
REMARK   74  A    between atoms: _181  and  _182
REMARK   75  A    between atoms: _185  and  _187
REMARK   76  A    between atoms: _187  and  _188
REMARK   77  A    between atoms: _190  and  _192
REMARK   78  A    between atoms: _192  and  _193
REMARK   79  A    between atoms: _192  and  _195
REMARK   80  A    between atoms: _195  and  _196
REMARK   81  A    between atoms: _196  and  _197
REMARK   82  A    between atoms: _200  and  _202
REMARK   83  A    between atoms: _202  and  _203
REMARK   84  A    between atoms: _202  and  _205
REMARK   85  A    between atoms: _208  and  _210
REMARK   86  A    between atoms: _210  and  _211
REMARK   87  A    between atoms: _210  and  _213
REMARK   88  A    between atoms: _213  and  _214
REMARK   89  A    between atoms: _217  and  _219
REMARK   90  A    between atoms: _219  and  _220
REMARK   91  A    between atoms: _219  and  _222
REMARK   92  A    between atoms: _222  and  _223
REMARK   93  A    between atoms: _226  and  _228
REMARK   94  A    between atoms: _228  and  _229
REMARK   95  A    between atoms: _232  and  _234
REMARK   96  A    between atoms: _234  and  _235
REMARK   97  A    between atoms: _234  and  _237
REMARK   98  A    between atoms: _240  and  _242
REMARK   99  A    between atoms: _242  and  _243
REMARK  100  A    between atoms: _242  and  _245
REMARK  101  A    between atoms: _245  and  _246
REMARK  102  A    between atoms: _246  and  _247
REMARK  103  A    between atoms: _250  and  _252
REMARK  104  A    between atoms: _252  and  _253
REMARK  105  A    between atoms: _256  and  _258
REMARK  106  A    between atoms: _258  and  _259
REMARK  107  A    between atoms: _262  and  _264
REMARK  108  A    between atoms: _264  and  _265
REMARK  109  A    between atoms: _264  and  _267
REMARK  110  A    between atoms: _267  and  _268
REMARK  111  A    between atoms: _270  and  _272
REMARK  112  A    between atoms: _272  and  _273
REMARK  113  A    between atoms: _272  and  _275
REMARK  114  A    between atoms: _275  and  _276
REMARK  115  A    between atoms: _286  and  _288
REMARK  116  A    between atoms: _288  and  _289
REMARK  117  A    between atoms: _292  and  _293
REMARK  118  A    between atoms: _298  and  _300
REMARK  119  A    between atoms: _300  and  _301
REMARK  120  A    between atoms: _300  and  _303
REMARK  121  A    between atoms: _303  and  _304
REMARK  122  A    between atoms: _304  and  _305
REMARK  123  A    between atoms: _308  and  _310
REMARK  124  A    between atoms: _310  and  _311
REMARK  125  A    between atoms: _310  and  _313
REMARK  126  A    between atoms: _313  and  _314
REMARK  127  A    between atoms: _317  and  _319
REMARK  128  A    between atoms: _319  and  _320
REMARK  129  A    between atoms: _319  and  _322
REMARK  130  A    between atoms: _322  and  _323
REMARK  131  A    between atoms: _326  and  _328
REMARK  132  A    between atoms: _328  and  _329
REMARK  133  A    between atoms: _328  and  _331
REMARK  134  A    between atoms: _331  and  _332
REMARK  135  A    between atoms: _335  and  _337
REMARK  136  A    between atoms: _337  and  _338
REMARK  137  A    between atoms: _337  and  _340
REMARK  138  A    between atoms: _343  and  _345
REMARK  139  A    between atoms: _345  and  _346
REMARK  140  A    between atoms: _345  and  _348
REMARK  141  A    between atoms: _348  and  _349
REMARK  142  A    between atoms: _352  and  _354
REMARK  143  A    between atoms: _354  and  _355
REMARK  144  A    between atoms: _358  and  _359
REMARK  145  A    between atoms: _364  and  _366
REMARK  146  A    between atoms: _366  and  _367
REMARK  147  A    between atoms: _370  and  _372
REMARK  148  A    between atoms: _372  and  _373
REMARK  149  A    between atoms: _372  and  _375
REMARK  150  A    between atoms: _375  and  _376
REMARK  151  A    between atoms: _376  and  _377
REMARK  152  A    between atoms: _377  and  _378
REMARK  153  A    between atoms: _387  and  _389
REMARK  154  A    between atoms: _389  and  _390
REMARK  155  A    between atoms: _389  and  _392
REMARK  156  A    between atoms: _392  and  _393
REMARK  157  A    between atoms: _396  and  _398
REMARK  158  A    between atoms: _398  and  _399
REMARK  159  A    between atoms: _402  and  _404
REMARK  160  A    between atoms: _404  and  _405
REMARK  161  A    between atoms: _404  and  _407
REMARK  162  A    between atoms: _407  and  _408
REMARK  163  A    between atoms: _408  and  _409
REMARK  164  A    between atoms: _412  and  _414
REMARK  165  A    between atoms: _414  and  _415
REMARK  166  A    between atoms: _414  and  _417
REMARK  167  A    between atoms: _417  and  _418
REMARK  168  A    between atoms: _428  and  _430
REMARK  169  A    between atoms: _430  and  _431
REMARK  170  A    between atoms: _434  and  _436
REMARK  171  A    between atoms: _436  and  _437
REMARK  172  A    between atoms: _436  and  _439
REMARK  173  A    between atoms: _439  and  _440
REMARK  174  A    between atoms: _442  and  _444
REMARK  175  A    between atoms: _444  and  _445
REMARK  176  A    between atoms: _447  and  _449
REMARK  177  A    between atoms: _449  and  _450
REMARK  178  A    between atoms: _449  and  _452
REMARK  179  A    between atoms: _452  and  _453
REMARK  180  A    between atoms: _458  and  _460
REMARK  181  A    between atoms: _460  and  _461
REMARK  182  A    between atoms: _463  and  _465
REMARK  183  A    between atoms: _465  and  _466
REMARK  184  A    between atoms: _465  and  _468
REMARK  185  A    between atoms: _468  and  _469
REMARK  186  A    between atoms: _469  and  _471
REMARK  187  A    between atoms: _471  and  CA_629
REMARK  188  A    between atoms: _472  and  _474
REMARK  189  A    between atoms: _474  and  _475
REMARK  190  A    between atoms: _474  and  _477
REMARK  191  A    between atoms: _477  and  _478
REMARK  192  A    between atoms: _480  and  _482
REMARK  193  A    between atoms: _482  and  _483
REMARK  194  A    between atoms: _482  and  _485
REMARK  195  A    between atoms: _487  and  _489
REMARK  196  A    between atoms: _489  and  _490
REMARK  197  A    between atoms: _489  and  _492
REMARK  198  A    between atoms: _494  and  _496
REMARK  199  A    between atoms: _496  and  _497
REMARK  200  A    between atoms: _496  and  _499
REMARK  201  A    between atoms: _499  and  _500
REMARK  202  A    between atoms: _503  and  _505
REMARK  203  A    between atoms: _505  and  _506
REMARK  204  A    between atoms: _508  and  _510
REMARK  205  A    between atoms: _510  and  _511
REMARK  206  A    between atoms: _510  and  _513
REMARK  207  A    between atoms: _513  and  _514
REMARK  208  A    between atoms: _519  and  _520
REMARK  209  A    between atoms: _522  and  _524
REMARK  210  A    between atoms: _524  and  _525
REMARK  211  A    between atoms: _524  and  _527
REMARK  212  A    between atoms: _527  and  _528
REMARK  213  A    between atoms: _531  and  _533
REMARK  214  A    between atoms: _533  and  _534
REMARK  215  A    between atoms: _533  and  _536
REMARK  216  A    between atoms: _536  and  _537
REMARK  217  A    between atoms: _542  and  _544
REMARK  218  A    between atoms: _544  and  _545
REMARK  219  A    between atoms: _544  and  _547
REMARK  220  A    between atoms: _547  and  _548
REMARK  221  A    between atoms: _551  and  _553
REMARK  222  A    between atoms: _553  and  _554
REMARK  223  A    between atoms: _553  and  _556
REMARK  224  A    between atoms: _556  and  _557
REMARK  225  A    between atoms: _559  and  _561
REMARK  226  A    between atoms: _561  and  _562
REMARK  227  A    between atoms: _561  and  _564
REMARK  228  A    between atoms: _564  and  _565
REMARK  229  A    between atoms: _568  and  _570
REMARK  230  A    between atoms: _570  and  _571
REMARK  231  A    between atoms: _570  and  _573
REMARK  232  A    between atoms: _573  and  _574
REMARK  233  A    between atoms: _574  and  _575
REMARK  234  A    between atoms: _578  and  _580
REMARK  235  A    between atoms: _580  and  _581
REMARK  236  A    between atoms: _580  and  _583
REMARK  237  A    between atoms: _583  and  _584
REMARK  238  A    between atoms: _587  and  _589
REMARK  239  A    between atoms: _589  and  _590
REMARK  240  A    between atoms: _592  and  _594
REMARK  241  A    between atoms: _594  and  _595
REMARK  242  A    between atoms: _594  and  _597
REMARK  243  A    between atoms: _597  and  _598
REMARK  244  A    between atoms: _601  and  _603
REMARK  245  A    between atoms: _603  and  _604
REMARK  246  A    between atoms: _603  and  _606
REMARK  247  A    between atoms: _606  and  _607
REMARK  248  A    between atoms: _609  and  _611
REMARK  249  A    between atoms: _611  and  _612
REMARK  250  A    between atoms: _615  and  _617
REMARK  251  A    between atoms: _617  and  _618
REMARK  252  A    between atoms: _617  and  _620
REMARK  253  A    between atoms: _620  and  _621
REMARK  254  A    between atoms: _623  and  _625
REMARK  255  A    between atoms: _625  and  _626
REMARK                            x       y       z     vdW  Elec       q    Type
REMARK                         _______ _______ _______ _____ _____    ______ ____
ROOT
ATOM      1  O   HOH     1      20.238  31.441 -12.030  0.00  0.00    +0.000 OA
ENDROOT
TORSDOF 0
REMARK  Name = ../refined-set-2016/4ryd/4ryd_pocket.pdb
REMARK  255 active torsions:
REMARK  status: ('A' for Active; 'I' for Inactive)
REMARK    1  A    between atoms: _1  and  _3
REMARK    2  A    between atoms: _3  and  _4
REMARK    3  A    between atoms: _3  and  _6
REMARK    4  A    between atoms: _6  and  _7
REMARK    5  A    between atoms: _10  and  _12
REMARK    6  A    between atoms: _12  and  _13
REMARK    7  A    between atoms: _12  and  _15
REMARK    8  A    between atoms: _15  and  _16
REMARK    9  A    between atoms: _19  and  _21
REMARK   10  A    between atoms: _21  and  _22
REMARK   11  A    between atoms: _24  and  _26
REMARK   12  A    between atoms: _26  and  _27
REMARK   13  A    between atoms: _26  and  _29
REMARK   14  A    between atoms: _29  and  _30
REMARK   15  A    between atoms: _35  and  _37
REMARK   16  A    between atoms: _37  and  _38
REMARK   17  A    between atoms: _37  and  _40
REMARK   18  A    between atoms: _40  and  _41
REMARK   19  A    between atoms: _41  and  _42
REMARK   20  A    between atoms: _42  and  _43
REMARK   21  A    between atoms: _52  and  _54
REMARK   22  A    between atoms: _54  and  _55
REMARK   23  A    between atoms: _54  and  _57
REMARK   24  A    between atoms: _57  and  _58
REMARK   25  A    between atoms: _61  and  _63
REMARK   26  A    between atoms: _63  and  _64
REMARK   27  A    between atoms: _63  and  _66
REMARK   28  A    between atoms: _66  and  _67
REMARK   29  A    between atoms: _72  and  _74
REMARK   30  A    between atoms: _74  and  _75
REMARK   31  A    between atoms: _74  and  _77
REMARK   32  A    between atoms: _77  and  _78
REMARK   33  A    between atoms: _81  and  _83
REMARK   34  A    between atoms: _83  and  _84
REMARK   35  A    between atoms: _83  and  _86
REMARK   36  A    between atoms: _86  and  _87
REMARK   37  A    between atoms: _92  and  _94
REMARK   38  A    between atoms: _94  and  _95
REMARK   39  A    between atoms: _94  and  _97
REMARK   40  A    between atoms: _97  and  _98
REMARK   41  A    between atoms: _98  and  _99
REMARK   42  A    between atoms: _99  and  _100
REMARK   43  A    between atoms: _109  and  _111
REMARK   44  A    between atoms: _111  and  _112
REMARK   45  A    between atoms: _111  and  _114
REMARK   46  A    between atoms: _114  and  _115
REMARK   47  A    between atoms: _120  and  _122
REMARK   48  A    between atoms: _122  and  _123
REMARK   49  A    between atoms: _125  and  _127
REMARK   50  A    between atoms: _127  and  _128
REMARK   51  A    between atoms: _127  and  _130
REMARK   52  A    between atoms: _130  and  _131
REMARK   53  A    between atoms: _134  and  _136
REMARK   54  A    between atoms: _136  and  _137
REMARK   55  A    between atoms: _136  and  _139
REMARK   56  A    between atoms: _141  and  _143
REMARK   57  A    between atoms: _143  and  _144
REMARK   58  A    between atoms: _143  and  _146
REMARK   59  A    between atoms: _146  and  _147
REMARK   60  A    between atoms: _147  and  _148
REMARK   61  A    between atoms: _148  and  _149
REMARK   62  A    between atoms: _158  and  _160
REMARK   63  A    between atoms: _160  and  _161
REMARK   64  A    between atoms: _160  and  _163
REMARK   65  A    between atoms: _163  and  _164
REMARK   66  A    between atoms: _164  and  _165
REMARK   67  A    between atoms: _167  and  _169
REMARK   68  A    between atoms: _169  and  _170
REMARK   69  A    between atoms: _169  and  _172
REMARK   70  A    between atoms: _172  and  _173
REMARK   71  A    between atoms: _176  and  _178
REMARK   72  A    between atoms: _178  and  _179
REMARK   73  A    between atoms: _178  and  _181
REMARK   74  A    between atoms: _181  and  _182
REMARK   75  A    between atoms: _185  and  _187
REMARK   76  A    between atoms: _187  and  _188
REMARK   77  A    between atoms: _190  and  _192
REMARK   78  A    between atoms: _192  and  _193
REMARK   79  A    between atoms: _192  and  _195
REMARK   80  A    between atoms: _195  and  _196
REMARK   81  A    between atoms: _196  and  _197
REMARK   82  A    between atoms: _200  and  _202
REMARK   83  A    between atoms: _202  and  _203
REMARK   84  A    between atoms: _202  and  _205
REMARK   85  A    between atoms: _208  and  _210
REMARK   86  A    between atoms: _210  and  _211
REMARK   87  A    between atoms: _210  and  _213
REMARK   88  A    between atoms: _213  and  _214
REMARK   89  A    between atoms: _217  and  _219
REMARK   90  A    between atoms: _219  and  _220
REMARK   91  A    between atoms: _219  and  _222
REMARK   92  A    between atoms: _222  and  _223
REMARK   93  A    between atoms: _226  and  _228
REMARK   94  A    between atoms: _228  and  _229
REMARK   95  A    between atoms: _232  and  _234
REMARK   96  A    between atoms: _234  and  _235
REMARK   97  A    between atoms: _234  and  _237
REMARK   98  A    between atoms: _240  and  _242
REMARK   99  A    between atoms: _242  and  _243
REMARK  100  A    between atoms: _242  and  _245
REMARK  101  A    between atoms: _245  and  _246
REMARK  102  A    between atoms: _246  and  _247
REMARK  103  A    between atoms: _250  and  _252
REMARK  104  A    between atoms: _252  and  _253
REMARK  105  A    between atoms: _256  and  _258
REMARK  106  A    between atoms: _258  and  _259
REMARK  107  A    between atoms: _262  and  _264
REMARK  108  A    between atoms: _264  and  _265
REMARK  109  A    between atoms: _264  and  _267
REMARK  110  A    between atoms: _267  and  _268
REMARK  111  A    between atoms: _270  and  _272
REMARK  112  A    between atoms: _272  and  _273
REMARK  113  A    between atoms: _272  and  _275
REMARK  114  A    between atoms: _275  and  _276
REMARK  115  A    between atoms: _286  and  _288
REMARK  116  A    between atoms: _288  and  _289
REMARK  117  A    between atoms: _292  and  _293
REMARK  118  A    between atoms: _298  and  _300
REMARK  119  A    between atoms: _300  and  _301
REMARK  120  A    between atoms: _300  and  _303
REMARK  121  A    between atoms: _303  and  _304
REMARK  122  A    between atoms: _304  and  _305
REMARK  123  A    between atoms: _308  and  _310
REMARK  124  A    between atoms: _310  and  _311
REMARK  125  A    between atoms: _310  and  _313
REMARK  126  A    between atoms: _313  and  _314
REMARK  127  A    between atoms: _317  and  _319
REMARK  128  A    between atoms: _319  and  _320
REMARK  129  A    between atoms: _319  and  _322
REMARK  130  A    between atoms: _322  and  _323
REMARK  131  A    between atoms: _326  and  _328
REMARK  132  A    between atoms: _328  and  _329
REMARK  133  A    between atoms: _328  and  _331
REMARK  134  A    between atoms: _331  and  _332
REMARK  135  A    between atoms: _335  and  _337
REMARK  136  A    between atoms: _337  and  _338
REMARK  137  A    between atoms: _337  and  _340
REMARK  138  A    between atoms: _343  and  _345
REMARK  139  A    between atoms: _345  and  _346
REMARK  140  A    between atoms: _345  and  _348
REMARK  141  A    between atoms: _348  and  _349
REMARK  142  A    between atoms: _352  and  _354
REMARK  143  A    between atoms: _354  and  _355
REMARK  144  A    between atoms: _358  and  _359
REMARK  145  A    between atoms: _364  and  _366
REMARK  146  A    between atoms: _366  and  _367
REMARK  147  A    between atoms: _370  and  _372
REMARK  148  A    between atoms: _372  and  _373
REMARK  149  A    between atoms: _372  and  _375
REMARK  150  A    between atoms: _375  and  _376
REMARK  151  A    between atoms: _376  and  _377
REMARK  152  A    between atoms: _377  and  _378
REMARK  153  A    between atoms: _387  and  _389
REMARK  154  A    between atoms: _389  and  _390
REMARK  155  A    between atoms: _389  and  _392
REMARK  156  A    between atoms: _392  and  _393
REMARK  157  A    between atoms: _396  and  _398
REMARK  158  A    between atoms: _398  and  _399
REMARK  159  A    between atoms: _402  and  _404
REMARK  160  A    between atoms: _404  and  _405
REMARK  161  A    between atoms: _404  and  _407
REMARK  162  A    between atoms: _407  and  _408
REMARK  163  A    between atoms: _408  and  _409
REMARK  164  A    between atoms: _412  and  _414
REMARK  165  A    between atoms: _414  and  _415
REMARK  166  A    between atoms: _414  and  _417
REMARK  167  A    between atoms: _417  and  _418
REMARK  168  A    between atoms: _428  and  _430
REMARK  169  A    between atoms: _430  and  _431
REMARK  170  A    between atoms: _434  and  _436
REMARK  171  A    between atoms: _436  and  _437
REMARK  172  A    between atoms: _436  and  _439
REMARK  173  A    between atoms: _439  and  _440
REMARK  174  A    between atoms: _442  and  _444
REMARK  175  A    between atoms: _444  and  _445
REMARK  176  A    between atoms: _447  and  _449
REMARK  177  A    between atoms: _449  and  _450
REMARK  178  A    between atoms: _449  and  _452
REMARK  179  A    between atoms: _452  and  _453
REMARK  180  A    between atoms: _458  and  _460
REMARK  181  A    between atoms: _460  and  _461
REMARK  182  A    between atoms: _463  and  _465
REMARK  183  A    between atoms: _465  and  _466
REMARK  184  A    between atoms: _465  and  _468
REMARK  185  A    between atoms: _468  and  _469
REMARK  186  A    between atoms: _469  and  _471
REMARK  187  A    between atoms: _471  and  CA_629
REMARK  188  A    between atoms: _472  and  _474
REMARK  189  A    between atoms: _474  and  _475
REMARK  190  A    between atoms: _474  and  _477
REMARK  191  A    between atoms: _477  and  _478
REMARK  192  A    between atoms: _480  and  _482
REMARK  193  A    between atoms: _482  and  _483
REMARK  194  A    between atoms: _482  and  _485
REMARK  195  A    between atoms: _487  and  _489
REMARK  196  A    between atoms: _489  and  _490
REMARK  197  A    between atoms: _489  and  _492
REMARK  198  A    between atoms: _494  and  _496
REMARK  199  A    between atoms: _496  and  _497
REMARK  200  A    between atoms: _496  and  _499
REMARK  201  A    between atoms: _499  and  _500
REMARK  202  A    between atoms: _503  and  _505
REMARK  203  A    between atoms: _505  and  _506
REMARK  204  A    between atoms: _508  and  _510
REMARK  205  A    between atoms: _510  and  _511
REMARK  206  A    between atoms: _510  and  _513
REMARK  207  A    between atoms: _513  and  _514
REMARK  208  A    between atoms: _519  and  _520
REMARK  209  A    between atoms: _522  and  _524
REMARK  210  A    between atoms: _524  and  _525
REMARK  211  A    between atoms: _524  and  _527
REMARK  212  A    between atoms: _527  and  _528
REMARK  213  A    between atoms: _531  and  _533
REMARK  214  A    between atoms: _533  and  _534
REMARK  215  A    between atoms: _533  and  _536
REMARK  216  A    between atoms: _536  and  _537
REMARK  217  A    between atoms: _542  and  _544
REMARK  218  A    between atoms: _544  and  _545
REMARK  219  A    between atoms: _544  and  _547
REMARK  220  A    between atoms: _547  and  _548
REMARK  221  A    between atoms: _551  and  _553
REMARK  222  A    between atoms: _553  and  _554
REMARK  223  A    between atoms: _553  and  _556
REMARK  224  A    between atoms: _556  and  _557
REMARK  225  A    between atoms: _559  and  _561
REMARK  226  A    between atoms: _561  and  _562
REMARK  227  A    between atoms: _561  and  _564
REMARK  228  A    between atoms: _564  and  _565
REMARK  229  A    between atoms: _568  and  _570
REMARK  230  A    between atoms: _570  and  _571
REMARK  231  A    between atoms: _570  and  _573
REMARK  232  A    between atoms: _573  and  _574
REMARK  233  A    between atoms: _574  and  _575
REMARK  234  A    between atoms: _578  and  _580
REMARK  235  A    between atoms: _580  and  _581
REMARK  236  A    between atoms: _580  and  _583
REMARK  237  A    between atoms: _583  and  _584
REMARK  238  A    between atoms: _587  and  _589
REMARK  239  A    between atoms: _589  and  _590
REMARK  240  A    between atoms: _592  and  _594
REMARK  241  A    between atoms: _594  and  _595
REMARK  242  A    between atoms: _594  and  _597
REMARK  243  A    between atoms: _597  and  _598
REMARK  244  A    between atoms: _601  and  _603
REMARK  245  A    between atoms: _603  and  _604
REMARK  246  A    between atoms: _603  and  _606
REMARK  247  A    between atoms: _606  and  _607
REMARK  248  A    between atoms: _609  and  _611
REMARK  249  A    between atoms: _611  and  _612
REMARK  250  A    between atoms: _615  and  _617
REMARK  251  A    between atoms: _617  and  _618
REMARK  252  A    between atoms: _617  and  _620
REMARK  253  A    between atoms: _620  and  _621
REMARK  254  A    between atoms: _623  and  _625
REMARK  255  A    between atoms: _625  and  _626
REMARK                            x       y       z     vdW  Elec       q    Type
REMARK                         _______ _______ _______ _____ _____    ______ ____
ROOT
ATOM      1  O   HOH     1      29.934  39.517  -8.228  0.00  0.00    +0.000 OA
ENDROOT
TORSDOF 0
REMARK  Name = ../refined-set-2016/4ryd/4ryd_pocket.pdb
REMARK  255 active torsions:
REMARK  status: ('A' for Active; 'I' for Inactive)
REMARK    1  A    between atoms: _1  and  _3
REMARK    2  A    between atoms: _3  and  _4
REMARK    3  A    between atoms: _3  and  _6
REMARK    4  A    between atoms: _6  and  _7
REMARK    5  A    between atoms: _10  and  _12
REMARK    6  A    between atoms: _12  and  _13
REMARK    7  A    between atoms: _12  and  _15
REMARK    8  A    between atoms: _15  and  _16
REMARK    9  A    between atoms: _19  and  _21
REMARK   10  A    between atoms: _21  and  _22
REMARK   11  A    between atoms: _24  and  _26
REMARK   12  A    between atoms: _26  and  _27
REMARK   13  A    between atoms: _26  and  _29
REMARK   14  A    between atoms: _29  and  _30
REMARK   15  A    between atoms: _35  and  _37
REMARK   16  A    between atoms: _37  and  _38
REMARK   17  A    between atoms: _37  and  _40
REMARK   18  A    between atoms: _40  and  _41
REMARK   19  A    between atoms: _41  and  _42
REMARK   20  A    between atoms: _42  and  _43
REMARK   21  A    between atoms: _52  and  _54
REMARK   22  A    between atoms: _54  and  _55
REMARK   23  A    between atoms: _54  and  _57
REMARK   24  A    between atoms: _57  and  _58
REMARK   25  A    between atoms: _61  and  _63
REMARK   26  A    between atoms: _63  and  _64
REMARK   27  A    between atoms: _63  and  _66
REMARK   28  A    between atoms: _66  and  _67
REMARK   29  A    between atoms: _72  and  _74
REMARK   30  A    between atoms: _74  and  _75
REMARK   31  A    between atoms: _74  and  _77
REMARK   32  A    between atoms: _77  and  _78
REMARK   33  A    between atoms: _81  and  _83
REMARK   34  A    between atoms: _83  and  _84
REMARK   35  A    between atoms: _83  and  _86
REMARK   36  A    between atoms: _86  and  _87
REMARK   37  A    between atoms: _92  and  _94
REMARK   38  A    between atoms: _94  and  _95
REMARK   39  A    between atoms: _94  and  _97
REMARK   40  A    between atoms: _97  and  _98
REMARK   41  A    between atoms: _98  and  _99
REMARK   42  A    between atoms: _99  and  _100
REMARK   43  A    between atoms: _109  and  _111
REMARK   44  A    between atoms: _111  and  _112
REMARK   45  A    between atoms: _111  and  _114
REMARK   46  A    between atoms: _114  and  _115
REMARK   47  A    between atoms: _120  and  _122
REMARK   48  A    between atoms: _122  and  _123
REMARK   49  A    between atoms: _125  and  _127
REMARK   50  A    between atoms: _127  and  _128
REMARK   51  A    between atoms: _127  and  _130
REMARK   52  A    between atoms: _130  and  _131
REMARK   53  A    between atoms: _134  and  _136
REMARK   54  A    between atoms: _136  and  _137
REMARK   55  A    between atoms: _136  and  _139
REMARK   56  A    between atoms: _141  and  _143
REMARK   57  A    between atoms: _143  and  _144
REMARK   58  A    between atoms: _143  and  _146
REMARK   59  A    between atoms: _146  and  _147
REMARK   60  A    between atoms: _147  and  _148
REMARK   61  A    between atoms: _148  and  _149
REMARK   62  A    between atoms: _158  and  _160
REMARK   63  A    between atoms: _160  and  _161
REMARK   64  A    between atoms: _160  and  _163
REMARK   65  A    between atoms: _163  and  _164
REMARK   66  A    between atoms: _164  and  _165
REMARK   67  A    between atoms: _167  and  _169
REMARK   68  A    between atoms: _169  and  _170
REMARK   69  A    between atoms: _169  and  _172
REMARK   70  A    between atoms: _172  and  _173
REMARK   71  A    between atoms: _176  and  _178
REMARK   72  A    between atoms: _178  and  _179
REMARK   73  A    between atoms: _178  and  _181
REMARK   74  A    between atoms: _181  and  _182
REMARK   75  A    between atoms: _185  and  _187
REMARK   76  A    between atoms: _187  and  _188
REMARK   77  A    between atoms: _190  and  _192
REMARK   78  A    between atoms: _192  and  _193
REMARK   79  A    between atoms: _192  and  _195
REMARK   80  A    between atoms: _195  and  _196
REMARK   81  A    between atoms: _196  and  _197
REMARK   82  A    between atoms: _200  and  _202
REMARK   83  A    between atoms: _202  and  _203
REMARK   84  A    between atoms: _202  and  _205
REMARK   85  A    between atoms: _208  and  _210
REMARK   86  A    between atoms: _210  and  _211
REMARK   87  A    between atoms: _210  and  _213
REMARK   88  A    between atoms: _213  and  _214
REMARK   89  A    between atoms: _217  and  _219
REMARK   90  A    between atoms: _219  and  _220
REMARK   91  A    between atoms: _219  and  _222
REMARK   92  A    between atoms: _222  and  _223
REMARK   93  A    between atoms: _226  and  _228
REMARK   94  A    between atoms: _228  and  _229
REMARK   95  A    between atoms: _232  and  _234
REMARK   96  A    between atoms: _234  and  _235
REMARK   97  A    between atoms: _234  and  _237
REMARK   98  A    between atoms: _240  and  _242
REMARK   99  A    between atoms: _242  and  _243
REMARK  100  A    between atoms: _242  and  _245
REMARK  101  A    between atoms: _245  and  _246
REMARK  102  A    between atoms: _246  and  _247
REMARK  103  A    between atoms: _250  and  _252
REMARK  104  A    between atoms: _252  and  _253
REMARK  105  A    between atoms: _256  and  _258
REMARK  106  A    between atoms: _258  and  _259
REMARK  107  A    between atoms: _262  and  _264
REMARK  108  A    between atoms: _264  and  _265
REMARK  109  A    between atoms: _264  and  _267
REMARK  110  A    between atoms: _267  and  _268
REMARK  111  A    between atoms: _270  and  _272
REMARK  112  A    between atoms: _272  and  _273
REMARK  113  A    between atoms: _272  and  _275
REMARK  114  A    between atoms: _275  and  _276
REMARK  115  A    between atoms: _286  and  _288
REMARK  116  A    between atoms: _288  and  _289
REMARK  117  A    between atoms: _292  and  _293
REMARK  118  A    between atoms: _298  and  _300
REMARK  119  A    between atoms: _300  and  _301
REMARK  120  A    between atoms: _300  and  _303
REMARK  121  A    between atoms: _303  and  _304
REMARK  122  A    between atoms: _304  and  _305
REMARK  123  A    between atoms: _308  and  _310
REMARK  124  A    between atoms: _310  and  _311
REMARK  125  A    between atoms: _310  and  _313
REMARK  126  A    between atoms: _313  and  _314
REMARK  127  A    between atoms: _317  and  _319
REMARK  128  A    between atoms: _319  and  _320
REMARK  129  A    between atoms: _319  and  _322
REMARK  130  A    between atoms: _322  and  _323
REMARK  131  A    between atoms: _326  and  _328
REMARK  132  A    between atoms: _328  and  _329
REMARK  133  A    between atoms: _328  and  _331
REMARK  134  A    between atoms: _331  and  _332
REMARK  135  A    between atoms: _335  and  _337
REMARK  136  A    between atoms: _337  and  _338
REMARK  137  A    between atoms: _337  and  _340
REMARK  138  A    between atoms: _343  and  _345
REMARK  139  A    between atoms: _345  and  _346
REMARK  140  A    between atoms: _345  and  _348
REMARK  141  A    between atoms: _348  and  _349
REMARK  142  A    between atoms: _352  and  _354
REMARK  143  A    between atoms: _354  and  _355
REMARK  144  A    between atoms: _358  and  _359
REMARK  145  A    between atoms: _364  and  _366
REMARK  146  A    between atoms: _366  and  _367
REMARK  147  A    between atoms: _370  and  _372
REMARK  148  A    between atoms: _372  and  _373
REMARK  149  A    between atoms: _372  and  _375
REMARK  150  A    between atoms: _375  and  _376
REMARK  151  A    between atoms: _376  and  _377
REMARK  152  A    between atoms: _377  and  _378
REMARK  153  A    between atoms: _387  and  _389
REMARK  154  A    between atoms: _389  and  _390
REMARK  155  A    between atoms: _389  and  _392
REMARK  156  A    between atoms: _392  and  _393
REMARK  157  A    between atoms: _396  and  _398
REMARK  158  A    between atoms: _398  and  _399
REMARK  159  A    between atoms: _402  and  _404
REMARK  160  A    between atoms: _404  and  _405
REMARK  161  A    between atoms: _404  and  _407
REMARK  162  A    between atoms: _407  and  _408
REMARK  163  A    between atoms: _408  and  _409
REMARK  164  A    between atoms: _412  and  _414
REMARK  165  A    between atoms: _414  and  _415
REMARK  166  A    between atoms: _414  and  _417
REMARK  167  A    between atoms: _417  and  _418
REMARK  168  A    between atoms: _428  and  _430
REMARK  169  A    between atoms: _430  and  _431
REMARK  170  A    between atoms: _434  and  _436
REMARK  171  A    between atoms: _436  and  _437
REMARK  172  A    between atoms: _436  and  _439
REMARK  173  A    between atoms: _439  and  _440
REMARK  174  A    between atoms: _442  and  _444
REMARK  175  A    between atoms: _444  and  _445
REMARK  176  A    between atoms: _447  and  _449
REMARK  177  A    between atoms: _449  and  _450
REMARK  178  A    between atoms: _449  and  _452
REMARK  179  A    between atoms: _452  and  _453
REMARK  180  A    between atoms: _458  and  _460
REMARK  181  A    between atoms: _460  and  _461
REMARK  182  A    between atoms: _463  and  _465
REMARK  183  A    between atoms: _465  and  _466
REMARK  184  A    between atoms: _465  and  _468
REMARK  185  A    between atoms: _468  and  _469
REMARK  186  A    between atoms: _469  and  _471
REMARK  187  A    between atoms: _471  and  CA_629
REMARK  188  A    between atoms: _472  and  _474
REMARK  189  A    between atoms: _474  and  _475
REMARK  190  A    between atoms: _474  and  _477
REMARK  191  A    between atoms: _477  and  _478
REMARK  192  A    between atoms: _480  and  _482
REMARK  193  A    between atoms: _482  and  _483
REMARK  194  A    between atoms: _482  and  _485
REMARK  195  A    between atoms: _487  and  _489
REMARK  196  A    between atoms: _489  and  _490
REMARK  197  A    between atoms: _489  and  _492
REMARK  198  A    between atoms: _494  and  _496
REMARK  199  A    between atoms: _496  and  _497
REMARK  200  A    between atoms: _496  and  _499
REMARK  201  A    between atoms: _499  and  _500
REMARK  202  A    between atoms: _503  and  _505
REMARK  203  A    between atoms: _505  and  _506
REMARK  204  A    between atoms: _508  and  _510
REMARK  205  A    between atoms: _510  and  _511
REMARK  206  A    between atoms: _510  and  _513
REMARK  207  A    between atoms: _513  and  _514
REMARK  208  A    between atoms: _519  and  _520
REMARK  209  A    between atoms: _522  and  _524
REMARK  210  A    between atoms: _524  and  _525
REMARK  211  A    between atoms: _524  and  _527
REMARK  212  A    between atoms: _527  and  _528
REMARK  213  A    between atoms: _531  and  _533
REMARK  214  A    between atoms: _533  and  _534
REMARK  215  A    between atoms: _533  and  _536
REMARK  216  A    between atoms: _536  and  _537
REMARK  217  A    between atoms: _542  and  _544
REMARK  218  A    between atoms: _544  and  _545
REMARK  219  A    between atoms: _544  and  _547
REMARK  220  A    between atoms: _547  and  _548
REMARK  221  A    between atoms: _551  and  _553
REMARK  222  A    between atoms: _553  and  _554
REMARK  223  A    between atoms: _553  and  _556
REMARK  224  A    between atoms: _556  and  _557
REMARK  225  A    between atoms: _559  and  _561
REMARK  226  A    between atoms: _561  and  _562
REMARK  227  A    between atoms: _561  and  _564
REMARK  228  A    between atoms: _564  and  _565
REMARK  229  A    between atoms: _568  and  _570
REMARK  230  A    between atoms: _570  and  _571
REMARK  231  A    between atoms: _570  and  _573
REMARK  232  A    between atoms: _573  and  _574
REMARK  233  A    between atoms: _574  and  _575
REMARK  234  A    between atoms: _578  and  _580
REMARK  235  A    between atoms: _580  and  _581
REMARK  236  A    between atoms: _580  and  _583
REMARK  237  A    between atoms: _583  and  _584
REMARK  238  A    between atoms: _587  and  _589
REMARK  239  A    between atoms: _589  and  _590
REMARK  240  A    between atoms: _592  and  _594
REMARK  241  A    between atoms: _594  and  _595
REMARK  242  A    between atoms: _594  and  _597
REMARK  243  A    between atoms: _597  and  _598
REMARK  244  A    between atoms: _601  and  _603
REMARK  245  A    between atoms: _603  and  _604
REMARK  246  A    between atoms: _603  and  _606
REMARK  247  A    between atoms: _606  and  _607
REMARK  248  A    between atoms: _609  and  _611
REMARK  249  A    between atoms: _611  and  _612
REMARK  250  A    between atoms: _615  and  _617
REMARK  251  A    between atoms: _617  and  _618
REMARK  252  A    between atoms: _617  and  _620
REMARK  253  A    between atoms: _620  and  _621
REMARK  254  A    between atoms: _623  and  _625
REMARK  255  A    between atoms: _625  and  _626
REMARK                            x       y       z     vdW  Elec       q    Type
REMARK                         _______ _______ _______ _____ _____    ______ ____
ROOT
ATOM      1  O   HOH     1      35.441  29.580  -6.578  0.00  0.00    +0.000 OA
ENDROOT
TORSDOF 0
REMARK  Name = ../refined-set-2016/4ryd/4ryd_pocket.pdb
REMARK  255 active torsions:
REMARK  status: ('A' for Active; 'I' for Inactive)
REMARK    1  A    between atoms: _1  and  _3
REMARK    2  A    between atoms: _3  and  _4
REMARK    3  A    between atoms: _3  and  _6
REMARK    4  A    between atoms: _6  and  _7
REMARK    5  A    between atoms: _10  and  _12
REMARK    6  A    between atoms: _12  and  _13
REMARK    7  A    between atoms: _12  and  _15
REMARK    8  A    between atoms: _15  and  _16
REMARK    9  A    between atoms: _19  and  _21
REMARK   10  A    between atoms: _21  and  _22
REMARK   11  A    between atoms: _24  and  _26
REMARK   12  A    between atoms: _26  and  _27
REMARK   13  A    between atoms: _26  and  _29
REMARK   14  A    between atoms: _29  and  _30
REMARK   15  A    between atoms: _35  and  _37
REMARK   16  A    between atoms: _37  and  _38
REMARK   17  A    between atoms: _37  and  _40
REMARK   18  A    between atoms: _40  and  _41
REMARK   19  A    between atoms: _41  and  _42
REMARK   20  A    between atoms: _42  and  _43
REMARK   21  A    between atoms: _52  and  _54
REMARK   22  A    between atoms: _54  and  _55
REMARK   23  A    between atoms: _54  and  _57
REMARK   24  A    between atoms: _57  and  _58
REMARK   25  A    between atoms: _61  and  _63
REMARK   26  A    between atoms: _63  and  _64
REMARK   27  A    between atoms: _63  and  _66
REMARK   28  A    between atoms: _66  and  _67
REMARK   29  A    between atoms: _72  and  _74
REMARK   30  A    between atoms: _74  and  _75
REMARK   31  A    between atoms: _74  and  _77
REMARK   32  A    between atoms: _77  and  _78
REMARK   33  A    between atoms: _81  and  _83
REMARK   34  A    between atoms: _83  and  _84
REMARK   35  A    between atoms: _83  and  _86
REMARK   36  A    between atoms: _86  and  _87
REMARK   37  A    between atoms: _92  and  _94
REMARK   38  A    between atoms: _94  and  _95
REMARK   39  A    between atoms: _94  and  _97
REMARK   40  A    between atoms: _97  and  _98
REMARK   41  A    between atoms: _98  and  _99
REMARK   42  A    between atoms: _99  and  _100
REMARK   43  A    between atoms: _109  and  _111
REMARK   44  A    between atoms: _111  and  _112
REMARK   45  A    between atoms: _111  and  _114
REMARK   46  A    between atoms: _114  and  _115
REMARK   47  A    between atoms: _120  and  _122
REMARK   48  A    between atoms: _122  and  _123
REMARK   49  A    between atoms: _125  and  _127
REMARK   50  A    between atoms: _127  and  _128
REMARK   51  A    between atoms: _127  and  _130
REMARK   52  A    between atoms: _130  and  _131
REMARK   53  A    between atoms: _134  and  _136
REMARK   54  A    between atoms: _136  and  _137
REMARK   55  A    between atoms: _136  and  _139
REMARK   56  A    between atoms: _141  and  _143
REMARK   57  A    between atoms: _143  and  _144
REMARK   58  A    between atoms: _143  and  _146
REMARK   59  A    between atoms: _146  and  _147
REMARK   60  A    between atoms: _147  and  _148
REMARK   61  A    between atoms: _148  and  _149
REMARK   62  A    between atoms: _158  and  _160
REMARK   63  A    between atoms: _160  and  _161
REMARK   64  A    between atoms: _160  and  _163
REMARK   65  A    between atoms: _163  and  _164
REMARK   66  A    between atoms: _164  and  _165
REMARK   67  A    between atoms: _167  and  _169
REMARK   68  A    between atoms: _169  and  _170
REMARK   69  A    between atoms: _169  and  _172
REMARK   70  A    between atoms: _172  and  _173
REMARK   71  A    between atoms: _176  and  _178
REMARK   72  A    between atoms: _178  and  _179
REMARK   73  A    between atoms: _178  and  _181
REMARK   74  A    between atoms: _181  and  _182
REMARK   75  A    between atoms: _185  and  _187
REMARK   76  A    between atoms: _187  and  _188
REMARK   77  A    between atoms: _190  and  _192
REMARK   78  A    between atoms: _192  and  _193
REMARK   79  A    between atoms: _192  and  _195
REMARK   80  A    between atoms: _195  and  _196
REMARK   81  A    between atoms: _196  and  _197
REMARK   82  A    between atoms: _200  and  _202
REMARK   83  A    between atoms: _202  and  _203
REMARK   84  A    between atoms: _202  and  _205
REMARK   85  A    between atoms: _208  and  _210
REMARK   86  A    between atoms: _210  and  _211
REMARK   87  A    between atoms: _210  and  _213
REMARK   88  A    between atoms: _213  and  _214
REMARK   89  A    between atoms: _217  and  _219
REMARK   90  A    between atoms: _219  and  _220
REMARK   91  A    between atoms: _219  and  _222
REMARK   92  A    between atoms: _222  and  _223
REMARK   93  A    between atoms: _226  and  _228
REMARK   94  A    between atoms: _228  and  _229
REMARK   95  A    between atoms: _232  and  _234
REMARK   96  A    between atoms: _234  and  _235
REMARK   97  A    between atoms: _234  and  _237
REMARK   98  A    between atoms: _240  and  _242
REMARK   99  A    between atoms: _242  and  _243
REMARK  100  A    between atoms: _242  and  _245
REMARK  101  A    between atoms: _245  and  _246
REMARK  102  A    between atoms: _246  and  _247
REMARK  103  A    between atoms: _250  and  _252
REMARK  104  A    between atoms: _252  and  _253
REMARK  105  A    between atoms: _256  and  _258
REMARK  106  A    between atoms: _258  and  _259
REMARK  107  A    between atoms: _262  and  _264
REMARK  108  A    between atoms: _264  and  _265
REMARK  109  A    between atoms: _264  and  _267
REMARK  110  A    between atoms: _267  and  _268
REMARK  111  A    between atoms: _270  and  _272
REMARK  112  A    between atoms: _272  and  _273
REMARK  113  A    between atoms: _272  and  _275
REMARK  114  A    between atoms: _275  and  _276
REMARK  115  A    between atoms: _286  and  _288
REMARK  116  A    between atoms: _288  and  _289
REMARK  117  A    between atoms: _292  and  _293
REMARK  118  A    between atoms: _298  and  _300
REMARK  119  A    between atoms: _300  and  _301
REMARK  120  A    between atoms: _300  and  _303
REMARK  121  A    between atoms: _303  and  _304
REMARK  122  A    between atoms: _304  and  _305
REMARK  123  A    between atoms: _308  and  _310
REMARK  124  A    between atoms: _310  and  _311
REMARK  125  A    between atoms: _310  and  _313
REMARK  126  A    between atoms: _313  and  _314
REMARK  127  A    between atoms: _317  and  _319
REMARK  128  A    between atoms: _319  and  _320
REMARK  129  A    between atoms: _319  and  _322
REMARK  130  A    between atoms: _322  and  _323
REMARK  131  A    between atoms: _326  and  _328
REMARK  132  A    between atoms: _328  and  _329
REMARK  133  A    between atoms: _328  and  _331
REMARK  134  A    between atoms: _331  and  _332
REMARK  135  A    between atoms: _335  and  _337
REMARK  136  A    between atoms: _337  and  _338
REMARK  137  A    between atoms: _337  and  _340
REMARK  138  A    between atoms: _343  and  _345
REMARK  139  A    between atoms: _345  and  _346
REMARK  140  A    between atoms: _345  and  _348
REMARK  141  A    between atoms: _348  and  _349
REMARK  142  A    between atoms: _352  and  _354
REMARK  143  A    between atoms: _354  and  _355
REMARK  144  A    between atoms: _358  and  _359
REMARK  145  A    between atoms: _364  and  _366
REMARK  146  A    between atoms: _366  and  _367
REMARK  147  A    between atoms: _370  and  _372
REMARK  148  A    between atoms: _372  and  _373
REMARK  149  A    between atoms: _372  and  _375
REMARK  150  A    between atoms: _375  and  _376
REMARK  151  A    between atoms: _376  and  _377
REMARK  152  A    between atoms: _377  and  _378
REMARK  153  A    between atoms: _387  and  _389
REMARK  154  A    between atoms: _389  and  _390
REMARK  155  A    between atoms: _389  and  _392
REMARK  156  A    between atoms: _392  and  _393
REMARK  157  A    between atoms: _396  and  _398
REMARK  158  A    between atoms: _398  and  _399
REMARK  159  A    between atoms: _402  and  _404
REMARK  160  A    between atoms: _404  and  _405
REMARK  161  A    between atoms: _404  and  _407
REMARK  162  A    between atoms: _407  and  _408
REMARK  163  A    between atoms: _408  and  _409
REMARK  164  A    between atoms: _412  and  _414
REMARK  165  A    between atoms: _414  and  _415
REMARK  166  A    between atoms: _414  and  _417
REMARK  167  A    between atoms: _417  and  _418
REMARK  168  A    between atoms: _428  and  _430
REMARK  169  A    between atoms: _430  and  _431
REMARK  170  A    between atoms: _434  and  _436
REMARK  171  A    between atoms: _436  and  _437
REMARK  172  A    between atoms: _436  and  _439
REMARK  173  A    between atoms: _439  and  _440
REMARK  174  A    between atoms: _442  and  _444
REMARK  175  A    between atoms: _444  and  _445
REMARK  176  A    between atoms: _447  and  _449
REMARK  177  A    between atoms: _449  and  _450
REMARK  178  A    between atoms: _449  and  _452
REMARK  179  A    between atoms: _452  and  _453
REMARK  180  A    between atoms: _458  and  _460
REMARK  181  A    between atoms: _460  and  _461
REMARK  182  A    between atoms: _463  and  _465
REMARK  183  A    between atoms: _465  and  _466
REMARK  184  A    between atoms: _465  and  _468
REMARK  185  A    between atoms: _468  and  _469
REMARK  186  A    between atoms: _469  and  _471
REMARK  187  A    between atoms: _471  and  CA_629
REMARK  188  A    between atoms: _472  and  _474
REMARK  189  A    between atoms: _474  and  _475
REMARK  190  A    between atoms: _474  and  _477
REMARK  191  A    between atoms: _477  and  _478
REMARK  192  A    between atoms: _480  and  _482
REMARK  193  A    between atoms: _482  and  _483
REMARK  194  A    between atoms: _482  and  _485
REMARK  195  A    between atoms: _487  and  _489
REMARK  196  A    between atoms: _489  and  _490
REMARK  197  A    between atoms: _489  and  _492
REMARK  198  A    between atoms: _494  and  _496
REMARK  199  A    between atoms: _496  and  _497
REMARK  200  A    between atoms: _496  and  _499
REMARK  201  A    between atoms: _499  and  _500
REMARK  202  A    between atoms: _503  and  _505
REMARK  203  A    between atoms: _505  and  _506
REMARK  204  A    between atoms: _508  and  _510
REMARK  205  A    between atoms: _510  and  _511
REMARK  206  A    between atoms: _510  and  _513
REMARK  207  A    between atoms: _513  and  _514
REMARK  208  A    between atoms: _519  and  _520
REMARK  209  A    between atoms: _522  and  _524
REMARK  210  A    between atoms: _524  and  _525
REMARK  211  A    between atoms: _524  and  _527
REMARK  212  A    between atoms: _527  and  _528
REMARK  213  A    between atoms: _531  and  _533
REMARK  214  A    between atoms: _533  and  _534
REMARK  215  A    between atoms: _533  and  _536
REMARK  216  A    between atoms: _536  and  _537
REMARK  217  A    between atoms: _542  and  _544
REMARK  218  A    between atoms: _544  and  _545
REMARK  219  A    between atoms: _544  and  _547
REMARK  220  A    between atoms: _547  and  _548
REMARK  221  A    between atoms: _551  and  _553
REMARK  222  A    between atoms: _553  and  _554
REMARK  223  A    between atoms: _553  and  _556
REMARK  224  A    between atoms: _556  and  _557
REMARK  225  A    between atoms: _559  and  _561
REMARK  226  A    between atoms: _561  and  _562
REMARK  227  A    between atoms: _561  and  _564
REMARK  228  A    between atoms: _564  and  _565
REMARK  229  A    between atoms: _568  and  _570
REMARK  230  A    between atoms: _570  and  _571
REMARK  231  A    between atoms: _570  and  _573
REMARK  232  A    between atoms: _573  and  _574
REMARK  233  A    between atoms: _574  and  _575
REMARK  234  A    between atoms: _578  and  _580
REMARK  235  A    between atoms: _580  and  _581
REMARK  236  A    between atoms: _580  and  _583
REMARK  237  A    between atoms: _583  and  _584
REMARK  238  A    between atoms: _587  and  _589
REMARK  239  A    between atoms: _589  and  _590
REMARK  240  A    between atoms: _592  and  _594
REMARK  241  A    between atoms: _594  and  _595
REMARK  242  A    between atoms: _594  and  _597
REMARK  243  A    between atoms: _597  and  _598
REMARK  244  A    between atoms: _601  and  _603
REMARK  245  A    between atoms: _603  and  _604
REMARK  246  A    between atoms: _603  and  _606
REMARK  247  A    between atoms: _606  and  _607
REMARK  248  A    between atoms: _609  and  _611
REMARK  249  A    between atoms: _611  and  _612
REMARK  250  A    between atoms: _615  and  _617
REMARK  251  A    between atoms: _617  and  _618
REMARK  252  A    between atoms: _617  and  _620
REMARK  253  A    between atoms: _620  and  _621
REMARK  254  A    between atoms: _623  and  _625
REMARK  255  A    between atoms: _625  and  _626
REMARK                            x       y       z     vdW  Elec       q    Type
REMARK                         _______ _______ _______ _____ _____    ______ ____
ROOT
ATOM      1  O   HOH     1      22.615  22.840 -12.994  0.00  0.00    +0.000 OA
ENDROOT
TORSDOF 0
REMARK  Name = ../refined-set-2016/4ryd/4ryd_pocket.pdb
REMARK  255 active torsions:
REMARK  status: ('A' for Active; 'I' for Inactive)
REMARK    1  A    between atoms: _1  and  _3
REMARK    2  A    between atoms: _3  and  _4
REMARK    3  A    between atoms: _3  and  _6
REMARK    4  A    between atoms: _6  and  _7
REMARK    5  A    between atoms: _10  and  _12
REMARK    6  A    between atoms: _12  and  _13
REMARK    7  A    between atoms: _12  and  _15
REMARK    8  A    between atoms: _15  and  _16
REMARK    9  A    between atoms: _19  and  _21
REMARK   10  A    between atoms: _21  and  _22
REMARK   11  A    between atoms: _24  and  _26
REMARK   12  A    between atoms: _26  and  _27
REMARK   13  A    between atoms: _26  and  _29
REMARK   14  A    between atoms: _29  and  _30
REMARK   15  A    between atoms: _35  and  _37
REMARK   16  A    between atoms: _37  and  _38
REMARK   17  A    between atoms: _37  and  _40
REMARK   18  A    between atoms: _40  and  _41
REMARK   19  A    between atoms: _41  and  _42
REMARK   20  A    between atoms: _42  and  _43
REMARK   21  A    between atoms: _52  and  _54
REMARK   22  A    between atoms: _54  and  _55
REMARK   23  A    between atoms: _54  and  _57
REMARK   24  A    between atoms: _57  and  _58
REMARK   25  A    between atoms: _61  and  _63
REMARK   26  A    between atoms: _63  and  _64
REMARK   27  A    between atoms: _63  and  _66
REMARK   28  A    between atoms: _66  and  _67
REMARK   29  A    between atoms: _72  and  _74
REMARK   30  A    between atoms: _74  and  _75
REMARK   31  A    between atoms: _74  and  _77
REMARK   32  A    between atoms: _77  and  _78
REMARK   33  A    between atoms: _81  and  _83
REMARK   34  A    between atoms: _83  and  _84
REMARK   35  A    between atoms: _83  and  _86
REMARK   36  A    between atoms: _86  and  _87
REMARK   37  A    between atoms: _92  and  _94
REMARK   38  A    between atoms: _94  and  _95
REMARK   39  A    between atoms: _94  and  _97
REMARK   40  A    between atoms: _97  and  _98
REMARK   41  A    between atoms: _98  and  _99
REMARK   42  A    between atoms: _99  and  _100
REMARK   43  A    between atoms: _109  and  _111
REMARK   44  A    between atoms: _111  and  _112
REMARK   45  A    between atoms: _111  and  _114
REMARK   46  A    between atoms: _114  and  _115
REMARK   47  A    between atoms: _120  and  _122
REMARK   48  A    between atoms: _122  and  _123
REMARK   49  A    between atoms: _125  and  _127
REMARK   50  A    between atoms: _127  and  _128
REMARK   51  A    between atoms: _127  and  _130
REMARK   52  A    between atoms: _130  and  _131
REMARK   53  A    between atoms: _134  and  _136
REMARK   54  A    between atoms: _136  and  _137
REMARK   55  A    between atoms: _136  and  _139
REMARK   56  A    between atoms: _141  and  _143
REMARK   57  A    between atoms: _143  and  _144
REMARK   58  A    between atoms: _143  and  _146
REMARK   59  A    between atoms: _146  and  _147
REMARK   60  A    between atoms: _147  and  _148
REMARK   61  A    between atoms: _148  and  _149
REMARK   62  A    between atoms: _158  and  _160
REMARK   63  A    between atoms: _160  and  _161
REMARK   64  A    between atoms: _160  and  _163
REMARK   65  A    between atoms: _163  and  _164
REMARK   66  A    between atoms: _164  and  _165
REMARK   67  A    between atoms: _167  and  _169
REMARK   68  A    between atoms: _169  and  _170
REMARK   69  A    between atoms: _169  and  _172
REMARK   70  A    between atoms: _172  and  _173
REMARK   71  A    between atoms: _176  and  _178
REMARK   72  A    between atoms: _178  and  _179
REMARK   73  A    between atoms: _178  and  _181
REMARK   74  A    between atoms: _181  and  _182
REMARK   75  A    between atoms: _185  and  _187
REMARK   76  A    between atoms: _187  and  _188
REMARK   77  A    between atoms: _190  and  _192
REMARK   78  A    between atoms: _192  and  _193
REMARK   79  A    between atoms: _192  and  _195
REMARK   80  A    between atoms: _195  and  _196
REMARK   81  A    between atoms: _196  and  _197
REMARK   82  A    between atoms: _200  and  _202
REMARK   83  A    between atoms: _202  and  _203
REMARK   84  A    between atoms: _202  and  _205
REMARK   85  A    between atoms: _208  and  _210
REMARK   86  A    between atoms: _210  and  _211
REMARK   87  A    between atoms: _210  and  _213
REMARK   88  A    between atoms: _213  and  _214
REMARK   89  A    between atoms: _217  and  _219
REMARK   90  A    between atoms: _219  and  _220
REMARK   91  A    between atoms: _219  and  _222
REMARK   92  A    between atoms: _222  and  _223
REMARK   93  A    between atoms: _226  and  _228
REMARK   94  A    between atoms: _228  and  _229
REMARK   95  A    between atoms: _232  and  _234
REMARK   96  A    between atoms: _234  and  _235
REMARK   97  A    between atoms: _234  and  _237
REMARK   98  A    between atoms: _240  and  _242
REMARK   99  A    between atoms: _242  and  _243
REMARK  100  A    between atoms: _242  and  _245
REMARK  101  A    between atoms: _245  and  _246
REMARK  102  A    between atoms: _246  and  _247
REMARK  103  A    between atoms: _250  and  _252
REMARK  104  A    between atoms: _252  and  _253
REMARK  105  A    between atoms: _256  and  _258
REMARK  106  A    between atoms: _258  and  _259
REMARK  107  A    between atoms: _262  and  _264
REMARK  108  A    between atoms: _264  and  _265
REMARK  109  A    between atoms: _264  and  _267
REMARK  110  A    between atoms: _267  and  _268
REMARK  111  A    between atoms: _270  and  _272
REMARK  112  A    between atoms: _272  and  _273
REMARK  113  A    between atoms: _272  and  _275
REMARK  114  A    between atoms: _275  and  _276
REMARK  115  A    between atoms: _286  and  _288
REMARK  116  A    between atoms: _288  and  _289
REMARK  117  A    between atoms: _292  and  _293
REMARK  118  A    between atoms: _298  and  _300
REMARK  119  A    between atoms: _300  and  _301
REMARK  120  A    between atoms: _300  and  _303
REMARK  121  A    between atoms: _303  and  _304
REMARK  122  A    between atoms: _304  and  _305
REMARK  123  A    between atoms: _308  and  _310
REMARK  124  A    between atoms: _310  and  _311
REMARK  125  A    between atoms: _310  and  _313
REMARK  126  A    between atoms: _313  and  _314
REMARK  127  A    between atoms: _317  and  _319
REMARK  128  A    between atoms: _319  and  _320
REMARK  129  A    between atoms: _319  and  _322
REMARK  130  A    between atoms: _322  and  _323
REMARK  131  A    between atoms: _326  and  _328
REMARK  132  A    between atoms: _328  and  _329
REMARK  133  A    between atoms: _328  and  _331
REMARK  134  A    between atoms: _331  and  _332
REMARK  135  A    between atoms: _335  and  _337
REMARK  136  A    between atoms: _337  and  _338
REMARK  137  A    between atoms: _337  and  _340
REMARK  138  A    between atoms: _343  and  _345
REMARK  139  A    between atoms: _345  and  _346
REMARK  140  A    between atoms: _345  and  _348
REMARK  141  A    between atoms: _348  and  _349
REMARK  142  A    between atoms: _352  and  _354
REMARK  143  A    between atoms: _354  and  _355
REMARK  144  A    between atoms: _358  and  _359
REMARK  145  A    between atoms: _364  and  _366
REMARK  146  A    between atoms: _366  and  _367
REMARK  147  A    between atoms: _370  and  _372
REMARK  148  A    between atoms: _372  and  _373
REMARK  149  A    between atoms: _372  and  _375
REMARK  150  A    between atoms: _375  and  _376
REMARK  151  A    between atoms: _376  and  _377
REMARK  152  A    between atoms: _377  and  _378
REMARK  153  A    between atoms: _387  and  _389
REMARK  154  A    between atoms: _389  and  _390
REMARK  155  A    between atoms: _389  and  _392
REMARK  156  A    between atoms: _392  and  _393
REMARK  157  A    between atoms: _396  and  _398
REMARK  158  A    between atoms: _398  and  _399
REMARK  159  A    between atoms: _402  and  _404
REMARK  160  A    between atoms: _404  and  _405
REMARK  161  A    between atoms: _404  and  _407
REMARK  162  A    between atoms: _407  and  _408
REMARK  163  A    between atoms: _408  and  _409
REMARK  164  A    between atoms: _412  and  _414
REMARK  165  A    between atoms: _414  and  _415
REMARK  166  A    between atoms: _414  and  _417
REMARK  167  A    between atoms: _417  and  _418
REMARK  168  A    between atoms: _428  and  _430
REMARK  169  A    between atoms: _430  and  _431
REMARK  170  A    between atoms: _434  and  _436
REMARK  171  A    between atoms: _436  and  _437
REMARK  172  A    between atoms: _436  and  _439
REMARK  173  A    between atoms: _439  and  _440
REMARK  174  A    between atoms: _442  and  _444
REMARK  175  A    between atoms: _444  and  _445
REMARK  176  A    between atoms: _447  and  _449
REMARK  177  A    between atoms: _449  and  _450
REMARK  178  A    between atoms: _449  and  _452
REMARK  179  A    between atoms: _452  and  _453
REMARK  180  A    between atoms: _458  and  _460
REMARK  181  A    between atoms: _460  and  _461
REMARK  182  A    between atoms: _463  and  _465
REMARK  183  A    between atoms: _465  and  _466
REMARK  184  A    between atoms: _465  and  _468
REMARK  185  A    between atoms: _468  and  _469
REMARK  186  A    between atoms: _469  and  _471
REMARK  187  A    between atoms: _471  and  CA_629
REMARK  188  A    between atoms: _472  and  _474
REMARK  189  A    between atoms: _474  and  _475
REMARK  190  A    between atoms: _474  and  _477
REMARK  191  A    between atoms: _477  and  _478
REMARK  192  A    between atoms: _480  and  _482
REMARK  193  A    between atoms: _482  and  _483
REMARK  194  A    between atoms: _482  and  _485
REMARK  195  A    between atoms: _487  and  _489
REMARK  196  A    between atoms: _489  and  _490
REMARK  197  A    between atoms: _489  and  _492
REMARK  198  A    between atoms: _494  and  _496
REMARK  199  A    between atoms: _496  and  _497
REMARK  200  A    between atoms: _496  and  _499
REMARK  201  A    between atoms: _499  and  _500
REMARK  202  A    between atoms: _503  and  _505
REMARK  203  A    between atoms: _505  and  _506
REMARK  204  A    between atoms: _508  and  _510
REMARK  205  A    between atoms: _510  and  _511
REMARK  206  A    between atoms: _510  and  _513
REMARK  207  A    between atoms: _513  and  _514
REMARK  208  A    between atoms: _519  and  _520
REMARK  209  A    between atoms: _522  and  _524
REMARK  210  A    between atoms: _524  and  _525
REMARK  211  A    between atoms: _524  and  _527
REMARK  212  A    between atoms: _527  and  _528
REMARK  213  A    between atoms: _531  and  _533
REMARK  214  A    between atoms: _533  and  _534
REMARK  215  A    between atoms: _533  and  _536
REMARK  216  A    between atoms: _536  and  _537
REMARK  217  A    between atoms: _542  and  _544
REMARK  218  A    between atoms: _544  and  _545
REMARK  219  A    between atoms: _544  and  _547
REMARK  220  A    between atoms: _547  and  _548
REMARK  221  A    between atoms: _551  and  _553
REMARK  222  A    between atoms: _553  and  _554
REMARK  223  A    between atoms: _553  and  _556
REMARK  224  A    between atoms: _556  and  _557
REMARK  225  A    between atoms: _559  and  _561
REMARK  226  A    between atoms: _561  and  _562
REMARK  227  A    between atoms: _561  and  _564
REMARK  228  A    between atoms: _564  and  _565
REMARK  229  A    between atoms: _568  and  _570
REMARK  230  A    between atoms: _570  and  _571
REMARK  231  A    between atoms: _570  and  _573
REMARK  232  A    between atoms: _573  and  _574
REMARK  233  A    between atoms: _574  and  _575
REMARK  234  A    between atoms: _578  and  _580
REMARK  235  A    between atoms: _580  and  _581
REMARK  236  A    between atoms: _580  and  _583
REMARK  237  A    between atoms: _583  and  _584
REMARK  238  A    between atoms: _587  and  _589
REMARK  239  A    between atoms: _589  and  _590
REMARK  240  A    between atoms: _592  and  _594
REMARK  241  A    between atoms: _594  and  _595
REMARK  242  A    between atoms: _594  and  _597
REMARK  243  A    between atoms: _597  and  _598
REMARK  244  A    between atoms: _601  and  _603
REMARK  245  A    between atoms: _603  and  _604
REMARK  246  A    between atoms: _603  and  _606
REMARK  247  A    between atoms: _606  and  _607
REMARK  248  A    between atoms: _609  and  _611
REMARK  249  A    between atoms: _611  and  _612
REMARK  250  A    between atoms: _615  and  _617
REMARK  251  A    between atoms: _617  and  _618
REMARK  252  A    between atoms: _617  and  _620
REMARK  253  A    between atoms: _620  and  _621
REMARK  254  A    between atoms: _623  and  _625
REMARK  255  A    between atoms: _625  and  _626
REMARK                            x       y       z     vdW  Elec       q    Type
REMARK                         _______ _______ _______ _____ _____    ______ ____
ROOT
ATOM      1  O   HOH     1      32.153  32.555  -5.458  0.00  0.00    +0.000 OA
ENDROOT
TORSDOF 0
REMARK  Name = ../refined-set-2016/4ryd/4ryd_pocket.pdb
REMARK  255 active torsions:
REMARK  status: ('A' for Active; 'I' for Inactive)
REMARK    1  A    between atoms: _1  and  _3
REMARK    2  A    between atoms: _3  and  _4
REMARK    3  A    between atoms: _3  and  _6
REMARK    4  A    between atoms: _6  and  _7
REMARK    5  A    between atoms: _10  and  _12
REMARK    6  A    between atoms: _12  and  _13
REMARK    7  A    between atoms: _12  and  _15
REMARK    8  A    between atoms: _15  and  _16
REMARK    9  A    between atoms: _19  and  _21
REMARK   10  A    between atoms: _21  and  _22
REMARK   11  A    between atoms: _24  and  _26
REMARK   12  A    between atoms: _26  and  _27
REMARK   13  A    between atoms: _26  and  _29
REMARK   14  A    between atoms: _29  and  _30
REMARK   15  A    between atoms: _35  and  _37
REMARK   16  A    between atoms: _37  and  _38
REMARK   17  A    between atoms: _37  and  _40
REMARK   18  A    between atoms: _40  and  _41
REMARK   19  A    between atoms: _41  and  _42
REMARK   20  A    between atoms: _42  and  _43
REMARK   21  A    between atoms: _52  and  _54
REMARK   22  A    between atoms: _54  and  _55
REMARK   23  A    between atoms: _54  and  _57
REMARK   24  A    between atoms: _57  and  _58
REMARK   25  A    between atoms: _61  and  _63
REMARK   26  A    between atoms: _63  and  _64
REMARK   27  A    between atoms: _63  and  _66
REMARK   28  A    between atoms: _66  and  _67
REMARK   29  A    between atoms: _72  and  _74
REMARK   30  A    between atoms: _74  and  _75
REMARK   31  A    between atoms: _74  and  _77
REMARK   32  A    between atoms: _77  and  _78
REMARK   33  A    between atoms: _81  and  _83
REMARK   34  A    between atoms: _83  and  _84
REMARK   35  A    between atoms: _83  and  _86
REMARK   36  A    between atoms: _86  and  _87
REMARK   37  A    between atoms: _92  and  _94
REMARK   38  A    between atoms: _94  and  _95
REMARK   39  A    between atoms: _94  and  _97
REMARK   40  A    between atoms: _97  and  _98
REMARK   41  A    between atoms: _98  and  _99
REMARK   42  A    between atoms: _99  and  _100
REMARK   43  A    between atoms: _109  and  _111
REMARK   44  A    between atoms: _111  and  _112
REMARK   45  A    between atoms: _111  and  _114
REMARK   46  A    between atoms: _114  and  _115
REMARK   47  A    between atoms: _120  and  _122
REMARK   48  A    between atoms: _122  and  _123
REMARK   49  A    between atoms: _125  and  _127
REMARK   50  A    between atoms: _127  and  _128
REMARK   51  A    between atoms: _127  and  _130
REMARK   52  A    between atoms: _130  and  _131
REMARK   53  A    between atoms: _134  and  _136
REMARK   54  A    between atoms: _136  and  _137
REMARK   55  A    between atoms: _136  and  _139
REMARK   56  A    between atoms: _141  and  _143
REMARK   57  A    between atoms: _143  and  _144
REMARK   58  A    between atoms: _143  and  _146
REMARK   59  A    between atoms: _146  and  _147
REMARK   60  A    between atoms: _147  and  _148
REMARK   61  A    between atoms: _148  and  _149
REMARK   62  A    between atoms: _158  and  _160
REMARK   63  A    between atoms: _160  and  _161
REMARK   64  A    between atoms: _160  and  _163
REMARK   65  A    between atoms: _163  and  _164
REMARK   66  A    between atoms: _164  and  _165
REMARK   67  A    between atoms: _167  and  _169
REMARK   68  A    between atoms: _169  and  _170
REMARK   69  A    between atoms: _169  and  _172
REMARK   70  A    between atoms: _172  and  _173
REMARK   71  A    between atoms: _176  and  _178
REMARK   72  A    between atoms: _178  and  _179
REMARK   73  A    between atoms: _178  and  _181
REMARK   74  A    between atoms: _181  and  _182
REMARK   75  A    between atoms: _185  and  _187
REMARK   76  A    between atoms: _187  and  _188
REMARK   77  A    between atoms: _190  and  _192
REMARK   78  A    between atoms: _192  and  _193
REMARK   79  A    between atoms: _192  and  _195
REMARK   80  A    between atoms: _195  and  _196
REMARK   81  A    between atoms: _196  and  _197
REMARK   82  A    between atoms: _200  and  _202
REMARK   83  A    between atoms: _202  and  _203
REMARK   84  A    between atoms: _202  and  _205
REMARK   85  A    between atoms: _208  and  _210
REMARK   86  A    between atoms: _210  and  _211
REMARK   87  A    between atoms: _210  and  _213
REMARK   88  A    between atoms: _213  and  _214
REMARK   89  A    between atoms: _217  and  _219
REMARK   90  A    between atoms: _219  and  _220
REMARK   91  A    between atoms: _219  and  _222
REMARK   92  A    between atoms: _222  and  _223
REMARK   93  A    between atoms: _226  and  _228
REMARK   94  A    between atoms: _228  and  _229
REMARK   95  A    between atoms: _232  and  _234
REMARK   96  A    between atoms: _234  and  _235
REMARK   97  A    between atoms: _234  and  _237
REMARK   98  A    between atoms: _240  and  _242
REMARK   99  A    between atoms: _242  and  _243
REMARK  100  A    between atoms: _242  and  _245
REMARK  101  A    between atoms: _245  and  _246
REMARK  102  A    between atoms: _246  and  _247
REMARK  103  A    between atoms: _250  and  _252
REMARK  104  A    between atoms: _252  and  _253
REMARK  105  A    between atoms: _256  and  _258
REMARK  106  A    between atoms: _258  and  _259
REMARK  107  A    between atoms: _262  and  _264
REMARK  108  A    between atoms: _264  and  _265
REMARK  109  A    between atoms: _264  and  _267
REMARK  110  A    between atoms: _267  and  _268
REMARK  111  A    between atoms: _270  and  _272
REMARK  112  A    between atoms: _272  and  _273
REMARK  113  A    between atoms: _272  and  _275
REMARK  114  A    between atoms: _275  and  _276
REMARK  115  A    between atoms: _286  and  _288
REMARK  116  A    between atoms: _288  and  _289
REMARK  117  A    between atoms: _292  and  _293
REMARK  118  A    between atoms: _298  and  _300
REMARK  119  A    between atoms: _300  and  _301
REMARK  120  A    between atoms: _300  and  _303
REMARK  121  A    between atoms: _303  and  _304
REMARK  122  A    between atoms: _304  and  _305
REMARK  123  A    between atoms: _308  and  _310
REMARK  124  A    between atoms: _310  and  _311
REMARK  125  A    between atoms: _310  and  _313
REMARK  126  A    between atoms: _313  and  _314
REMARK  127  A    between atoms: _317  and  _319
REMARK  128  A    between atoms: _319  and  _320
REMARK  129  A    between atoms: _319  and  _322
REMARK  130  A    between atoms: _322  and  _323
REMARK  131  A    between atoms: _326  and  _328
REMARK  132  A    between atoms: _328  and  _329
REMARK  133  A    between atoms: _328  and  _331
REMARK  134  A    between atoms: _331  and  _332
REMARK  135  A    between atoms: _335  and  _337
REMARK  136  A    between atoms: _337  and  _338
REMARK  137  A    between atoms: _337  and  _340
REMARK  138  A    between atoms: _343  and  _345
REMARK  139  A    between atoms: _345  and  _346
REMARK  140  A    between atoms: _345  and  _348
REMARK  141  A    between atoms: _348  and  _349
REMARK  142  A    between atoms: _352  and  _354
REMARK  143  A    between atoms: _354  and  _355
REMARK  144  A    between atoms: _358  and  _359
REMARK  145  A    between atoms: _364  and  _366
REMARK  146  A    between atoms: _366  and  _367
REMARK  147  A    between atoms: _370  and  _372
REMARK  148  A    between atoms: _372  and  _373
REMARK  149  A    between atoms: _372  and  _375
REMARK  150  A    between atoms: _375  and  _376
REMARK  151  A    between atoms: _376  and  _377
REMARK  152  A    between atoms: _377  and  _378
REMARK  153  A    between atoms: _387  and  _389
REMARK  154  A    between atoms: _389  and  _390
REMARK  155  A    between atoms: _389  and  _392
REMARK  156  A    between atoms: _392  and  _393
REMARK  157  A    between atoms: _396  and  _398
REMARK  158  A    between atoms: _398  and  _399
REMARK  159  A    between atoms: _402  and  _404
REMARK  160  A    between atoms: _404  and  _405
REMARK  161  A    between atoms: _404  and  _407
REMARK  162  A    between atoms: _407  and  _408
REMARK  163  A    between atoms: _408  and  _409
REMARK  164  A    between atoms: _412  and  _414
REMARK  165  A    between atoms: _414  and  _415
REMARK  166  A    between atoms: _414  and  _417
REMARK  167  A    between atoms: _417  and  _418
REMARK  168  A    between atoms: _428  and  _430
REMARK  169  A    between atoms: _430  and  _431
REMARK  170  A    between atoms: _434  and  _436
REMARK  171  A    between atoms: _436  and  _437
REMARK  172  A    between atoms: _436  and  _439
REMARK  173  A    between atoms: _439  and  _440
REMARK  174  A    between atoms: _442  and  _444
REMARK  175  A    between atoms: _444  and  _445
REMARK  176  A    between atoms: _447  and  _449
REMARK  177  A    between atoms: _449  and  _450
REMARK  178  A    between atoms: _449  and  _452
REMARK  179  A    between atoms: _452  and  _453
REMARK  180  A    between atoms: _458  and  _460
REMARK  181  A    between atoms: _460  and  _461
REMARK  182  A    between atoms: _463  and  _465
REMARK  183  A    between atoms: _465  and  _466
REMARK  184  A    between atoms: _465  and  _468
REMARK  185  A    between atoms: _468  and  _469
REMARK  186  A    between atoms: _469  and  _471
REMARK  187  A    between atoms: _471  and  CA_629
REMARK  188  A    between atoms: _472  and  _474
REMARK  189  A    between atoms: _474  and  _475
REMARK  190  A    between atoms: _474  and  _477
REMARK  191  A    between atoms: _477  and  _478
REMARK  192  A    between atoms: _480  and  _482
REMARK  193  A    between atoms: _482  and  _483
REMARK  194  A    between atoms: _482  and  _485
REMARK  195  A    between atoms: _487  and  _489
REMARK  196  A    between atoms: _489  and  _490
REMARK  197  A    between atoms: _489  and  _492
REMARK  198  A    between atoms: _494  and  _496
REMARK  199  A    between atoms: _496  and  _497
REMARK  200  A    between atoms: _496  and  _499
REMARK  201  A    between atoms: _499  and  _500
REMARK  202  A    between atoms: _503  and  _505
REMARK  203  A    between atoms: _505  and  _506
REMARK  204  A    between atoms: _508  and  _510
REMARK  205  A    between atoms: _510  and  _511
REMARK  206  A    between atoms: _510  and  _513
REMARK  207  A    between atoms: _513  and  _514
REMARK  208  A    between atoms: _519  and  _520
REMARK  209  A    between atoms: _522  and  _524
REMARK  210  A    between atoms: _524  and  _525
REMARK  211  A    between atoms: _524  and  _527
REMARK  212  A    between atoms: _527  and  _528
REMARK  213  A    between atoms: _531  and  _533
REMARK  214  A    between atoms: _533  and  _534
REMARK  215  A    between atoms: _533  and  _536
REMARK  216  A    between atoms: _536  and  _537
REMARK  217  A    between atoms: _542  and  _544
REMARK  218  A    between atoms: _544  and  _545
REMARK  219  A    between atoms: _544  and  _547
REMARK  220  A    between atoms: _547  and  _548
REMARK  221  A    between atoms: _551  and  _553
REMARK  222  A    between atoms: _553  and  _554
REMARK  223  A    between atoms: _553  and  _556
REMARK  224  A    between atoms: _556  and  _557
REMARK  225  A    between atoms: _559  and  _561
REMARK  226  A    between atoms: _561  and  _562
REMARK  227  A    between atoms: _561  and  _564
REMARK  228  A    between atoms: _564  and  _565
REMARK  229  A    between atoms: _568  and  _570
REMARK  230  A    between atoms: _570  and  _571
REMARK  231  A    between atoms: _570  and  _573
REMARK  232  A    between atoms: _573  and  _574
REMARK  233  A    between atoms: _574  and  _575
REMARK  234  A    between atoms: _578  and  _580
REMARK  235  A    between atoms: _580  and  _581
REMARK  236  A    between atoms: _580  and  _583
REMARK  237  A    between atoms: _583  and  _584
REMARK  238  A    between atoms: _587  and  _589
REMARK  239  A    between atoms: _589  and  _590
REMARK  240  A    between atoms: _592  and  _594
REMARK  241  A    between atoms: _594  and  _595
REMARK  242  A    between atoms: _594  and  _597
REMARK  243  A    between atoms: _597  and  _598
REMARK  244  A    between atoms: _601  and  _603
REMARK  245  A    between atoms: _603  and  _604
REMARK  246  A    between atoms: _603  and  _606
REMARK  247  A    between atoms: _606  and  _607
REMARK  248  A    between atoms: _609  and  _611
REMARK  249  A    between atoms: _611  and  _612
REMARK  250  A    between atoms: _615  and  _617
REMARK  251  A    between atoms: _617  and  _618
REMARK  252  A    between atoms: _617  and  _620
REMARK  253  A    between atoms: _620  and  _621
REMARK  254  A    between atoms: _623  and  _625
REMARK  255  A    between atoms: _625  and  _626
REMARK                            x       y       z     vdW  Elec       q    Type
REMARK                         _______ _______ _______ _____ _____    ______ ____
ROOT
ATOM      1  O   HOH     1      23.275  20.942 -10.065  0.00  0.00    +0.000 OA
ENDROOT
TORSDOF 0
REMARK  Name = ../refined-set-2016/4ryd/4ryd_pocket.pdb
REMARK  255 active torsions:
REMARK  status: ('A' for Active; 'I' for Inactive)
REMARK    1  A    between atoms: _1  and  _3
REMARK    2  A    between atoms: _3  and  _4
REMARK    3  A    between atoms: _3  and  _6
REMARK    4  A    between atoms: _6  and  _7
REMARK    5  A    between atoms: _10  and  _12
REMARK    6  A    between atoms: _12  and  _13
REMARK    7  A    between atoms: _12  and  _15
REMARK    8  A    between atoms: _15  and  _16
REMARK    9  A    between atoms: _19  and  _21
REMARK   10  A    between atoms: _21  and  _22
REMARK   11  A    between atoms: _24  and  _26
REMARK   12  A    between atoms: _26  and  _27
REMARK   13  A    between atoms: _26  and  _29
REMARK   14  A    between atoms: _29  and  _30
REMARK   15  A    between atoms: _35  and  _37
REMARK   16  A    between atoms: _37  and  _38
REMARK   17  A    between atoms: _37  and  _40
REMARK   18  A    between atoms: _40  and  _41
REMARK   19  A    between atoms: _41  and  _42
REMARK   20  A    between atoms: _42  and  _43
REMARK   21  A    between atoms: _52  and  _54
REMARK   22  A    between atoms: _54  and  _55
REMARK   23  A    between atoms: _54  and  _57
REMARK   24  A    between atoms: _57  and  _58
REMARK   25  A    between atoms: _61  and  _63
REMARK   26  A    between atoms: _63  and  _64
REMARK   27  A    between atoms: _63  and  _66
REMARK   28  A    between atoms: _66  and  _67
REMARK   29  A    between atoms: _72  and  _74
REMARK   30  A    between atoms: _74  and  _75
REMARK   31  A    between atoms: _74  and  _77
REMARK   32  A    between atoms: _77  and  _78
REMARK   33  A    between atoms: _81  and  _83
REMARK   34  A    between atoms: _83  and  _84
REMARK   35  A    between atoms: _83  and  _86
REMARK   36  A    between atoms: _86  and  _87
REMARK   37  A    between atoms: _92  and  _94
REMARK   38  A    between atoms: _94  and  _95
REMARK   39  A    between atoms: _94  and  _97
REMARK   40  A    between atoms: _97  and  _98
REMARK   41  A    between atoms: _98  and  _99
REMARK   42  A    between atoms: _99  and  _100
REMARK   43  A    between atoms: _109  and  _111
REMARK   44  A    between atoms: _111  and  _112
REMARK   45  A    between atoms: _111  and  _114
REMARK   46  A    between atoms: _114  and  _115
REMARK   47  A    between atoms: _120  and  _122
REMARK   48  A    between atoms: _122  and  _123
REMARK   49  A    between atoms: _125  and  _127
REMARK   50  A    between atoms: _127  and  _128
REMARK   51  A    between atoms: _127  and  _130
REMARK   52  A    between atoms: _130  and  _131
REMARK   53  A    between atoms: _134  and  _136
REMARK   54  A    between atoms: _136  and  _137
REMARK   55  A    between atoms: _136  and  _139
REMARK   56  A    between atoms: _141  and  _143
REMARK   57  A    between atoms: _143  and  _144
REMARK   58  A    between atoms: _143  and  _146
REMARK   59  A    between atoms: _146  and  _147
REMARK   60  A    between atoms: _147  and  _148
REMARK   61  A    between atoms: _148  and  _149
REMARK   62  A    between atoms: _158  and  _160
REMARK   63  A    between atoms: _160  and  _161
REMARK   64  A    between atoms: _160  and  _163
REMARK   65  A    between atoms: _163  and  _164
REMARK   66  A    between atoms: _164  and  _165
REMARK   67  A    between atoms: _167  and  _169
REMARK   68  A    between atoms: _169  and  _170
REMARK   69  A    between atoms: _169  and  _172
REMARK   70  A    between atoms: _172  and  _173
REMARK   71  A    between atoms: _176  and  _178
REMARK   72  A    between atoms: _178  and  _179
REMARK   73  A    between atoms: _178  and  _181
REMARK   74  A    between atoms: _181  and  _182
REMARK   75  A    between atoms: _185  and  _187
REMARK   76  A    between atoms: _187  and  _188
REMARK   77  A    between atoms: _190  and  _192
REMARK   78  A    between atoms: _192  and  _193
REMARK   79  A    between atoms: _192  and  _195
REMARK   80  A    between atoms: _195  and  _196
REMARK   81  A    between atoms: _196  and  _197
REMARK   82  A    between atoms: _200  and  _202
REMARK   83  A    between atoms: _202  and  _203
REMARK   84  A    between atoms: _202  and  _205
REMARK   85  A    between atoms: _208  and  _210
REMARK   86  A    between atoms: _210  and  _211
REMARK   87  A    between atoms: _210  and  _213
REMARK   88  A    between atoms: _213  and  _214
REMARK   89  A    between atoms: _217  and  _219
REMARK   90  A    between atoms: _219  and  _220
REMARK   91  A    between atoms: _219  and  _222
REMARK   92  A    between atoms: _222  and  _223
REMARK   93  A    between atoms: _226  and  _228
REMARK   94  A    between atoms: _228  and  _229
REMARK   95  A    between atoms: _232  and  _234
REMARK   96  A    between atoms: _234  and  _235
REMARK   97  A    between atoms: _234  and  _237
REMARK   98  A    between atoms: _240  and  _242
REMARK   99  A    between atoms: _242  and  _243
REMARK  100  A    between atoms: _242  and  _245
REMARK  101  A    between atoms: _245  and  _246
REMARK  102  A    between atoms: _246  and  _247
REMARK  103  A    between atoms: _250  and  _252
REMARK  104  A    between atoms: _252  and  _253
REMARK  105  A    between atoms: _256  and  _258
REMARK  106  A    between atoms: _258  and  _259
REMARK  107  A    between atoms: _262  and  _264
REMARK  108  A    between atoms: _264  and  _265
REMARK  109  A    between atoms: _264  and  _267
REMARK  110  A    between atoms: _267  and  _268
REMARK  111  A    between atoms: _270  and  _272
REMARK  112  A    between atoms: _272  and  _273
REMARK  113  A    between atoms: _272  and  _275
REMARK  114  A    between atoms: _275  and  _276
REMARK  115  A    between atoms: _286  and  _288
REMARK  116  A    between atoms: _288  and  _289
REMARK  117  A    between atoms: _292  and  _293
REMARK  118  A    between atoms: _298  and  _300
REMARK  119  A    between atoms: _300  and  _301
REMARK  120  A    between atoms: _300  and  _303
REMARK  121  A    between atoms: _303  and  _304
REMARK  122  A    between atoms: _304  and  _305
REMARK  123  A    between atoms: _308  and  _310
REMARK  124  A    between atoms: _310  and  _311
REMARK  125  A    between atoms: _310  and  _313
REMARK  126  A    between atoms: _313  and  _314
REMARK  127  A    between atoms: _317  and  _319
REMARK  128  A    between atoms: _319  and  _320
REMARK  129  A    between atoms: _319  and  _322
REMARK  130  A    between atoms: _322  and  _323
REMARK  131  A    between atoms: _326  and  _328
REMARK  132  A    between atoms: _328  and  _329
REMARK  133  A    between atoms: _328  and  _331
REMARK  134  A    between atoms: _331  and  _332
REMARK  135  A    between atoms: _335  and  _337
REMARK  136  A    between atoms: _337  and  _338
REMARK  137  A    between atoms: _337  and  _340
REMARK  138  A    between atoms: _343  and  _345
REMARK  139  A    between atoms: _345  and  _346
REMARK  140  A    between atoms: _345  and  _348
REMARK  141  A    between atoms: _348  and  _349
REMARK  142  A    between atoms: _352  and  _354
REMARK  143  A    between atoms: _354  and  _355
REMARK  144  A    between atoms: _358  and  _359
REMARK  145  A    between atoms: _364  and  _366
REMARK  146  A    between atoms: _366  and  _367
REMARK  147  A    between atoms: _370  and  _372
REMARK  148  A    between atoms: _372  and  _373
REMARK  149  A    between atoms: _372  and  _375
REMARK  150  A    between atoms: _375  and  _376
REMARK  151  A    between atoms: _376  and  _377
REMARK  152  A    between atoms: _377  and  _378
REMARK  153  A    between atoms: _387  and  _389
REMARK  154  A    between atoms: _389  and  _390
REMARK  155  A    between atoms: _389  and  _392
REMARK  156  A    between atoms: _392  and  _393
REMARK  157  A    between atoms: _396  and  _398
REMARK  158  A    between atoms: _398  and  _399
REMARK  159  A    between atoms: _402  and  _404
REMARK  160  A    between atoms: _404  and  _405
REMARK  161  A    between atoms: _404  and  _407
REMARK  162  A    between atoms: _407  and  _408
REMARK  163  A    between atoms: _408  and  _409
REMARK  164  A    between atoms: _412  and  _414
REMARK  165  A    between atoms: _414  and  _415
REMARK  166  A    between atoms: _414  and  _417
REMARK  167  A    between atoms: _417  and  _418
REMARK  168  A    between atoms: _428  and  _430
REMARK  169  A    between atoms: _430  and  _431
REMARK  170  A    between atoms: _434  and  _436
REMARK  171  A    between atoms: _436  and  _437
REMARK  172  A    between atoms: _436  and  _439
REMARK  173  A    between atoms: _439  and  _440
REMARK  174  A    between atoms: _442  and  _444
REMARK  175  A    between atoms: _444  and  _445
REMARK  176  A    between atoms: _447  and  _449
REMARK  177  A    between atoms: _449  and  _450
REMARK  178  A    between atoms: _449  and  _452
REMARK  179  A    between atoms: _452  and  _453
REMARK  180  A    between atoms: _458  and  _460
REMARK  181  A    between atoms: _460  and  _461
REMARK  182  A    between atoms: _463  and  _465
REMARK  183  A    between atoms: _465  and  _466
REMARK  184  A    between atoms: _465  and  _468
REMARK  185  A    between atoms: _468  and  _469
REMARK  186  A    between atoms: _469  and  _471
REMARK  187  A    between atoms: _471  and  CA_629
REMARK  188  A    between atoms: _472  and  _474
REMARK  189  A    between atoms: _474  and  _475
REMARK  190  A    between atoms: _474  and  _477
REMARK  191  A    between atoms: _477  and  _478
REMARK  192  A    between atoms: _480  and  _482
REMARK  193  A    between atoms: _482  and  _483
REMARK  194  A    between atoms: _482  and  _485
REMARK  195  A    between atoms: _487  and  _489
REMARK  196  A    between atoms: _489  and  _490
REMARK  197  A    between atoms: _489  and  _492
REMARK  198  A    between atoms: _494  and  _496
REMARK  199  A    between atoms: _496  and  _497
REMARK  200  A    between atoms: _496  and  _499
REMARK  201  A    between atoms: _499  and  _500
REMARK  202  A    between atoms: _503  and  _505
REMARK  203  A    between atoms: _505  and  _506
REMARK  204  A    between atoms: _508  and  _510
REMARK  205  A    between atoms: _510  and  _511
REMARK  206  A    between atoms: _510  and  _513
REMARK  207  A    between atoms: _513  and  _514
REMARK  208  A    between atoms: _519  and  _520
REMARK  209  A    between atoms: _522  and  _524
REMARK  210  A    between atoms: _524  and  _525
REMARK  211  A    between atoms: _524  and  _527
REMARK  212  A    between atoms: _527  and  _528
REMARK  213  A    between atoms: _531  and  _533
REMARK  214  A    between atoms: _533  and  _534
REMARK  215  A    between atoms: _533  and  _536
REMARK  216  A    between atoms: _536  and  _537
REMARK  217  A    between atoms: _542  and  _544
REMARK  218  A    between atoms: _544  and  _545
REMARK  219  A    between atoms: _544  and  _547
REMARK  220  A    between atoms: _547  and  _548
REMARK  221  A    between atoms: _551  and  _553
REMARK  222  A    between atoms: _553  and  _554
REMARK  223  A    between atoms: _553  and  _556
REMARK  224  A    between atoms: _556  and  _557
REMARK  225  A    between atoms: _559  and  _561
REMARK  226  A    between atoms: _561  and  _562
REMARK  227  A    between atoms: _561  and  _564
REMARK  228  A    between atoms: _564  and  _565
REMARK  229  A    between atoms: _568  and  _570
REMARK  230  A    between atoms: _570  and  _571
REMARK  231  A    between atoms: _570  and  _573
REMARK  232  A    between atoms: _573  and  _574
REMARK  233  A    between atoms: _574  and  _575
REMARK  234  A    between atoms: _578  and  _580
REMARK  235  A    between atoms: _580  and  _581
REMARK  236  A    between atoms: _580  and  _583
REMARK  237  A    between atoms: _583  and  _584
REMARK  238  A    between atoms: _587  and  _589
REMARK  239  A    between atoms: _589  and  _590
REMARK  240  A    between atoms: _592  and  _594
REMARK  241  A    between atoms: _594  and  _595
REMARK  242  A    between atoms: _594  and  _597
REMARK  243  A    between atoms: _597  and  _598
REMARK  244  A    between atoms: _601  and  _603
REMARK  245  A    between atoms: _603  and  _604
REMARK  246  A    between atoms: _603  and  _606
REMARK  247  A    between atoms: _606  and  _607
REMARK  248  A    between atoms: _609  and  _611
REMARK  249  A    between atoms: _611  and  _612
REMARK  250  A    between atoms: _615  and  _617
REMARK  251  A    between atoms: _617  and  _618
REMARK  252  A    between atoms: _617  and  _620
REMARK  253  A    between atoms: _620  and  _621
REMARK  254  A    between atoms: _623  and  _625
REMARK  255  A    between atoms: _625  and  _626
REMARK                            x       y       z     vdW  Elec       q    Type
REMARK                         _______ _______ _______ _____ _____    ______ ____
ROOT
ATOM      1  O   HOH     1      32.965  18.914  -5.953  0.00  0.00    +0.000 OA
ENDROOT
TORSDOF 0
REMARK  Name = ../refined-set-2016/4ryd/4ryd_pocket.pdb
REMARK  255 active torsions:
REMARK  status: ('A' for Active; 'I' for Inactive)
REMARK    1  A    between atoms: _1  and  _3
REMARK    2  A    between atoms: _3  and  _4
REMARK    3  A    between atoms: _3  and  _6
REMARK    4  A    between atoms: _6  and  _7
REMARK    5  A    between atoms: _10  and  _12
REMARK    6  A    between atoms: _12  and  _13
REMARK    7  A    between atoms: _12  and  _15
REMARK    8  A    between atoms: _15  and  _16
REMARK    9  A    between atoms: _19  and  _21
REMARK   10  A    between atoms: _21  and  _22
REMARK   11  A    between atoms: _24  and  _26
REMARK   12  A    between atoms: _26  and  _27
REMARK   13  A    between atoms: _26  and  _29
REMARK   14  A    between atoms: _29  and  _30
REMARK   15  A    between atoms: _35  and  _37
REMARK   16  A    between atoms: _37  and  _38
REMARK   17  A    between atoms: _37  and  _40
REMARK   18  A    between atoms: _40  and  _41
REMARK   19  A    between atoms: _41  and  _42
REMARK   20  A    between atoms: _42  and  _43
REMARK   21  A    between atoms: _52  and  _54
REMARK   22  A    between atoms: _54  and  _55
REMARK   23  A    between atoms: _54  and  _57
REMARK   24  A    between atoms: _57  and  _58
REMARK   25  A    between atoms: _61  and  _63
REMARK   26  A    between atoms: _63  and  _64
REMARK   27  A    between atoms: _63  and  _66
REMARK   28  A    between atoms: _66  and  _67
REMARK   29  A    between atoms: _72  and  _74
REMARK   30  A    between atoms: _74  and  _75
REMARK   31  A    between atoms: _74  and  _77
REMARK   32  A    between atoms: _77  and  _78
REMARK   33  A    between atoms: _81  and  _83
REMARK   34  A    between atoms: _83  and  _84
REMARK   35  A    between atoms: _83  and  _86
REMARK   36  A    between atoms: _86  and  _87
REMARK   37  A    between atoms: _92  and  _94
REMARK   38  A    between atoms: _94  and  _95
REMARK   39  A    between atoms: _94  and  _97
REMARK   40  A    between atoms: _97  and  _98
REMARK   41  A    between atoms: _98  and  _99
REMARK   42  A    between atoms: _99  and  _100
REMARK   43  A    between atoms: _109  and  _111
REMARK   44  A    between atoms: _111  and  _112
REMARK   45  A    between atoms: _111  and  _114
REMARK   46  A    between atoms: _114  and  _115
REMARK   47  A    between atoms: _120  and  _122
REMARK   48  A    between atoms: _122  and  _123
REMARK   49  A    between atoms: _125  and  _127
REMARK   50  A    between atoms: _127  and  _128
REMARK   51  A    between atoms: _127  and  _130
REMARK   52  A    between atoms: _130  and  _131
REMARK   53  A    between atoms: _134  and  _136
REMARK   54  A    between atoms: _136  and  _137
REMARK   55  A    between atoms: _136  and  _139
REMARK   56  A    between atoms: _141  and  _143
REMARK   57  A    between atoms: _143  and  _144
REMARK   58  A    between atoms: _143  and  _146
REMARK   59  A    between atoms: _146  and  _147
REMARK   60  A    between atoms: _147  and  _148
REMARK   61  A    between atoms: _148  and  _149
REMARK   62  A    between atoms: _158  and  _160
REMARK   63  A    between atoms: _160  and  _161
REMARK   64  A    between atoms: _160  and  _163
REMARK   65  A    between atoms: _163  and  _164
REMARK   66  A    between atoms: _164  and  _165
REMARK   67  A    between atoms: _167  and  _169
REMARK   68  A    between atoms: _169  and  _170
REMARK   69  A    between atoms: _169  and  _172
REMARK   70  A    between atoms: _172  and  _173
REMARK   71  A    between atoms: _176  and  _178
REMARK   72  A    between atoms: _178  and  _179
REMARK   73  A    between atoms: _178  and  _181
REMARK   74  A    between atoms: _181  and  _182
REMARK   75  A    between atoms: _185  and  _187
REMARK   76  A    between atoms: _187  and  _188
REMARK   77  A    between atoms: _190  and  _192
REMARK   78  A    between atoms: _192  and  _193
REMARK   79  A    between atoms: _192  and  _195
REMARK   80  A    between atoms: _195  and  _196
REMARK   81  A    between atoms: _196  and  _197
REMARK   82  A    between atoms: _200  and  _202
REMARK   83  A    between atoms: _202  and  _203
REMARK   84  A    between atoms: _202  and  _205
REMARK   85  A    between atoms: _208  and  _210
REMARK   86  A    between atoms: _210  and  _211
REMARK   87  A    between atoms: _210  and  _213
REMARK   88  A    between atoms: _213  and  _214
REMARK   89  A    between atoms: _217  and  _219
REMARK   90  A    between atoms: _219  and  _220
REMARK   91  A    between atoms: _219  and  _222
REMARK   92  A    between atoms: _222  and  _223
REMARK   93  A    between atoms: _226  and  _228
REMARK   94  A    between atoms: _228  and  _229
REMARK   95  A    between atoms: _232  and  _234
REMARK   96  A    between atoms: _234  and  _235
REMARK   97  A    between atoms: _234  and  _237
REMARK   98  A    between atoms: _240  and  _242
REMARK   99  A    between atoms: _242  and  _243
REMARK  100  A    between atoms: _242  and  _245
REMARK  101  A    between atoms: _245  and  _246
REMARK  102  A    between atoms: _246  and  _247
REMARK  103  A    between atoms: _250  and  _252
REMARK  104  A    between atoms: _252  and  _253
REMARK  105  A    between atoms: _256  and  _258
REMARK  106  A    between atoms: _258  and  _259
REMARK  107  A    between atoms: _262  and  _264
REMARK  108  A    between atoms: _264  and  _265
REMARK  109  A    between atoms: _264  and  _267
REMARK  110  A    between atoms: _267  and  _268
REMARK  111  A    between atoms: _270  and  _272
REMARK  112  A    between atoms: _272  and  _273
REMARK  113  A    between atoms: _272  and  _275
REMARK  114  A    between atoms: _275  and  _276
REMARK  115  A    between atoms: _286  and  _288
REMARK  116  A    between atoms: _288  and  _289
REMARK  117  A    between atoms: _292  and  _293
REMARK  118  A    between atoms: _298  and  _300
REMARK  119  A    between atoms: _300  and  _301
REMARK  120  A    between atoms: _300  and  _303
REMARK  121  A    between atoms: _303  and  _304
REMARK  122  A    between atoms: _304  and  _305
REMARK  123  A    between atoms: _308  and  _310
REMARK  124  A    between atoms: _310  and  _311
REMARK  125  A    between atoms: _310  and  _313
REMARK  126  A    between atoms: _313  and  _314
REMARK  127  A    between atoms: _317  and  _319
REMARK  128  A    between atoms: _319  and  _320
REMARK  129  A    between atoms: _319  and  _322
REMARK  130  A    between atoms: _322  and  _323
REMARK  131  A    between atoms: _326  and  _328
REMARK  132  A    between atoms: _328  and  _329
REMARK  133  A    between atoms: _328  and  _331
REMARK  134  A    between atoms: _331  and  _332
REMARK  135  A    between atoms: _335  and  _337
REMARK  136  A    between atoms: _337  and  _338
REMARK  137  A    between atoms: _337  and  _340
REMARK  138  A    between atoms: _343  and  _345
REMARK  139  A    between atoms: _345  and  _346
REMARK  140  A    between atoms: _345  and  _348
REMARK  141  A    between atoms: _348  and  _349
REMARK  142  A    between atoms: _352  and  _354
REMARK  143  A    between atoms: _354  and  _355
REMARK  144  A    between atoms: _358  and  _359
REMARK  145  A    between atoms: _364  and  _366
REMARK  146  A    between atoms: _366  and  _367
REMARK  147  A    between atoms: _370  and  _372
REMARK  148  A    between atoms: _372  and  _373
REMARK  149  A    between atoms: _372  and  _375
REMARK  150  A    between atoms: _375  and  _376
REMARK  151  A    between atoms: _376  and  _377
REMARK  152  A    between atoms: _377  and  _378
REMARK  153  A    between atoms: _387  and  _389
REMARK  154  A    between atoms: _389  and  _390
REMARK  155  A    between atoms: _389  and  _392
REMARK  156  A    between atoms: _392  and  _393
REMARK  157  A    between atoms: _396  and  _398
REMARK  158  A    between atoms: _398  and  _399
REMARK  159  A    between atoms: _402  and  _404
REMARK  160  A    between atoms: _404  and  _405
REMARK  161  A    between atoms: _404  and  _407
REMARK  162  A    between atoms: _407  and  _408
REMARK  163  A    between atoms: _408  and  _409
REMARK  164  A    between atoms: _412  and  _414
REMARK  165  A    between atoms: _414  and  _415
REMARK  166  A    between atoms: _414  and  _417
REMARK  167  A    between atoms: _417  and  _418
REMARK  168  A    between atoms: _428  and  _430
REMARK  169  A    between atoms: _430  and  _431
REMARK  170  A    between atoms: _434  and  _436
REMARK  171  A    between atoms: _436  and  _437
REMARK  172  A    between atoms: _436  and  _439
REMARK  173  A    between atoms: _439  and  _440
REMARK  174  A    between atoms: _442  and  _444
REMARK  175  A    between atoms: _444  and  _445
REMARK  176  A    between atoms: _447  and  _449
REMARK  177  A    between atoms: _449  and  _450
REMARK  178  A    between atoms: _449  and  _452
REMARK  179  A    between atoms: _452  and  _453
REMARK  180  A    between atoms: _458  and  _460
REMARK  181  A    between atoms: _460  and  _461
REMARK  182  A    between atoms: _463  and  _465
REMARK  183  A    between atoms: _465  and  _466
REMARK  184  A    between atoms: _465  and  _468
REMARK  185  A    between atoms: _468  and  _469
REMARK  186  A    between atoms: _469  and  _471
REMARK  187  A    between atoms: _471  and  CA_629
REMARK  188  A    between atoms: _472  and  _474
REMARK  189  A    between atoms: _474  and  _475
REMARK  190  A    between atoms: _474  and  _477
REMARK  191  A    between atoms: _477  and  _478
REMARK  192  A    between atoms: _480  and  _482
REMARK  193  A    between atoms: _482  and  _483
REMARK  194  A    between atoms: _482  and  _485
REMARK  195  A    between atoms: _487  and  _489
REMARK  196  A    between atoms: _489  and  _490
REMARK  197  A    between atoms: _489  and  _492
REMARK  198  A    between atoms: _494  and  _496
REMARK  199  A    between atoms: _496  and  _497
REMARK  200  A    between atoms: _496  and  _499
REMARK  201  A    between atoms: _499  and  _500
REMARK  202  A    between atoms: _503  and  _505
REMARK  203  A    between atoms: _505  and  _506
REMARK  204  A    between atoms: _508  and  _510
REMARK  205  A    between atoms: _510  and  _511
REMARK  206  A    between atoms: _510  and  _513
REMARK  207  A    between atoms: _513  and  _514
REMARK  208  A    between atoms: _519  and  _520
REMARK  209  A    between atoms: _522  and  _524
REMARK  210  A    between atoms: _524  and  _525
REMARK  211  A    between atoms: _524  and  _527
REMARK  212  A    between atoms: _527  and  _528
REMARK  213  A    between atoms: _531  and  _533
REMARK  214  A    between atoms: _533  and  _534
REMARK  215  A    between atoms: _533  and  _536
REMARK  216  A    between atoms: _536  and  _537
REMARK  217  A    between atoms: _542  and  _544
REMARK  218  A    between atoms: _544  and  _545
REMARK  219  A    between atoms: _544  and  _547
REMARK  220  A    between atoms: _547  and  _548
REMARK  221  A    between atoms: _551  and  _553
REMARK  222  A    between atoms: _553  and  _554
REMARK  223  A    between atoms: _553  and  _556
REMARK  224  A    between atoms: _556  and  _557
REMARK  225  A    between atoms: _559  and  _561
REMARK  226  A    between atoms: _561  and  _562
REMARK  227  A    between atoms: _561  and  _564
REMARK  228  A    between atoms: _564  and  _565
REMARK  229  A    between atoms: _568  and  _570
REMARK  230  A    between atoms: _570  and  _571
REMARK  231  A    between atoms: _570  and  _573
REMARK  232  A    between atoms: _573  and  _574
REMARK  233  A    between atoms: _574  and  _575
REMARK  234  A    between atoms: _578  and  _580
REMARK  235  A    between atoms: _580  and  _581
REMARK  236  A    between atoms: _580  and  _583
REMARK  237  A    between atoms: _583  and  _584
REMARK  238  A    between atoms: _587  and  _589
REMARK  239  A    between atoms: _589  and  _590
REMARK  240  A    between atoms: _592  and  _594
REMARK  241  A    between atoms: _594  and  _595
REMARK  242  A    between atoms: _594  and  _597
REMARK  243  A    between atoms: _597  and  _598
REMARK  244  A    between atoms: _601  and  _603
REMARK  245  A    between atoms: _603  and  _604
REMARK  246  A    between atoms: _603  and  _606
REMARK  247  A    between atoms: _606  and  _607
REMARK  248  A    between atoms: _609  and  _611
REMARK  249  A    between atoms: _611  and  _612
REMARK  250  A    between atoms: _615  and  _617
REMARK  251  A    between atoms: _617  and  _618
REMARK  252  A    between atoms: _617  and  _620
REMARK  253  A    between atoms: _620  and  _621
REMARK  254  A    between atoms: _623  and  _625
REMARK  255  A    between atoms: _625  and  _626
REMARK                            x       y       z     vdW  Elec       q    Type
REMARK                         _______ _______ _______ _____ _____    ______ ____
ROOT
ATOM      1  O   HOH     1      31.493  17.099  -8.667  0.00  0.00    +0.000 OA
ENDROOT
TORSDOF 0
REMARK  Name = ../refined-set-2016/4ryd/4ryd_pocket.pdb
REMARK  255 active torsions:
REMARK  status: ('A' for Active; 'I' for Inactive)
REMARK    1  A    between atoms: _1  and  _3
REMARK    2  A    between atoms: _3  and  _4
REMARK    3  A    between atoms: _3  and  _6
REMARK    4  A    between atoms: _6  and  _7
REMARK    5  A    between atoms: _10  and  _12
REMARK    6  A    between atoms: _12  and  _13
REMARK    7  A    between atoms: _12  and  _15
REMARK    8  A    between atoms: _15  and  _16
REMARK    9  A    between atoms: _19  and  _21
REMARK   10  A    between atoms: _21  and  _22
REMARK   11  A    between atoms: _24  and  _26
REMARK   12  A    between atoms: _26  and  _27
REMARK   13  A    between atoms: _26  and  _29
REMARK   14  A    between atoms: _29  and  _30
REMARK   15  A    between atoms: _35  and  _37
REMARK   16  A    between atoms: _37  and  _38
REMARK   17  A    between atoms: _37  and  _40
REMARK   18  A    between atoms: _40  and  _41
REMARK   19  A    between atoms: _41  and  _42
REMARK   20  A    between atoms: _42  and  _43
REMARK   21  A    between atoms: _52  and  _54
REMARK   22  A    between atoms: _54  and  _55
REMARK   23  A    between atoms: _54  and  _57
REMARK   24  A    between atoms: _57  and  _58
REMARK   25  A    between atoms: _61  and  _63
REMARK   26  A    between atoms: _63  and  _64
REMARK   27  A    between atoms: _63  and  _66
REMARK   28  A    between atoms: _66  and  _67
REMARK   29  A    between atoms: _72  and  _74
REMARK   30  A    between atoms: _74  and  _75
REMARK   31  A    between atoms: _74  and  _77
REMARK   32  A    between atoms: _77  and  _78
REMARK   33  A    between atoms: _81  and  _83
REMARK   34  A    between atoms: _83  and  _84
REMARK   35  A    between atoms: _83  and  _86
REMARK   36  A    between atoms: _86  and  _87
REMARK   37  A    between atoms: _92  and  _94
REMARK   38  A    between atoms: _94  and  _95
REMARK   39  A    between atoms: _94  and  _97
REMARK   40  A    between atoms: _97  and  _98
REMARK   41  A    between atoms: _98  and  _99
REMARK   42  A    between atoms: _99  and  _100
REMARK   43  A    between atoms: _109  and  _111
REMARK   44  A    between atoms: _111  and  _112
REMARK   45  A    between atoms: _111  and  _114
REMARK   46  A    between atoms: _114  and  _115
REMARK   47  A    between atoms: _120  and  _122
REMARK   48  A    between atoms: _122  and  _123
REMARK   49  A    between atoms: _125  and  _127
REMARK   50  A    between atoms: _127  and  _128
REMARK   51  A    between atoms: _127  and  _130
REMARK   52  A    between atoms: _130  and  _131
REMARK   53  A    between atoms: _134  and  _136
REMARK   54  A    between atoms: _136  and  _137
REMARK   55  A    between atoms: _136  and  _139
REMARK   56  A    between atoms: _141  and  _143
REMARK   57  A    between atoms: _143  and  _144
REMARK   58  A    between atoms: _143  and  _146
REMARK   59  A    between atoms: _146  and  _147
REMARK   60  A    between atoms: _147  and  _148
REMARK   61  A    between atoms: _148  and  _149
REMARK   62  A    between atoms: _158  and  _160
REMARK   63  A    between atoms: _160  and  _161
REMARK   64  A    between atoms: _160  and  _163
REMARK   65  A    between atoms: _163  and  _164
REMARK   66  A    between atoms: _164  and  _165
REMARK   67  A    between atoms: _167  and  _169
REMARK   68  A    between atoms: _169  and  _170
REMARK   69  A    between atoms: _169  and  _172
REMARK   70  A    between atoms: _172  and  _173
REMARK   71  A    between atoms: _176  and  _178
REMARK   72  A    between atoms: _178  and  _179
REMARK   73  A    between atoms: _178  and  _181
REMARK   74  A    between atoms: _181  and  _182
REMARK   75  A    between atoms: _185  and  _187
REMARK   76  A    between atoms: _187  and  _188
REMARK   77  A    between atoms: _190  and  _192
REMARK   78  A    between atoms: _192  and  _193
REMARK   79  A    between atoms: _192  and  _195
REMARK   80  A    between atoms: _195  and  _196
REMARK   81  A    between atoms: _196  and  _197
REMARK   82  A    between atoms: _200  and  _202
REMARK   83  A    between atoms: _202  and  _203
REMARK   84  A    between atoms: _202  and  _205
REMARK   85  A    between atoms: _208  and  _210
REMARK   86  A    between atoms: _210  and  _211
REMARK   87  A    between atoms: _210  and  _213
REMARK   88  A    between atoms: _213  and  _214
REMARK   89  A    between atoms: _217  and  _219
REMARK   90  A    between atoms: _219  and  _220
REMARK   91  A    between atoms: _219  and  _222
REMARK   92  A    between atoms: _222  and  _223
REMARK   93  A    between atoms: _226  and  _228
REMARK   94  A    between atoms: _228  and  _229
REMARK   95  A    between atoms: _232  and  _234
REMARK   96  A    between atoms: _234  and  _235
REMARK   97  A    between atoms: _234  and  _237
REMARK   98  A    between atoms: _240  and  _242
REMARK   99  A    between atoms: _242  and  _243
REMARK  100  A    between atoms: _242  and  _245
REMARK  101  A    between atoms: _245  and  _246
REMARK  102  A    between atoms: _246  and  _247
REMARK  103  A    between atoms: _250  and  _252
REMARK  104  A    between atoms: _252  and  _253
REMARK  105  A    between atoms: _256  and  _258
REMARK  106  A    between atoms: _258  and  _259
REMARK  107  A    between atoms: _262  and  _264
REMARK  108  A    between atoms: _264  and  _265
REMARK  109  A    between atoms: _264  and  _267
REMARK  110  A    between atoms: _267  and  _268
REMARK  111  A    between atoms: _270  and  _272
REMARK  112  A    between atoms: _272  and  _273
REMARK  113  A    between atoms: _272  and  _275
REMARK  114  A    between atoms: _275  and  _276
REMARK  115  A    between atoms: _286  and  _288
REMARK  116  A    between atoms: _288  and  _289
REMARK  117  A    between atoms: _292  and  _293
REMARK  118  A    between atoms: _298  and  _300
REMARK  119  A    between atoms: _300  and  _301
REMARK  120  A    between atoms: _300  and  _303
REMARK  121  A    between atoms: _303  and  _304
REMARK  122  A    between atoms: _304  and  _305
REMARK  123  A    between atoms: _308  and  _310
REMARK  124  A    between atoms: _310  and  _311
REMARK  125  A    between atoms: _310  and  _313
REMARK  126  A    between atoms: _313  and  _314
REMARK  127  A    between atoms: _317  and  _319
REMARK  128  A    between atoms: _319  and  _320
REMARK  129  A    between atoms: _319  and  _322
REMARK  130  A    between atoms: _322  and  _323
REMARK  131  A    between atoms: _326  and  _328
REMARK  132  A    between atoms: _328  and  _329
REMARK  133  A    between atoms: _328  and  _331
REMARK  134  A    between atoms: _331  and  _332
REMARK  135  A    between atoms: _335  and  _337
REMARK  136  A    between atoms: _337  and  _338
REMARK  137  A    between atoms: _337  and  _340
REMARK  138  A    between atoms: _343  and  _345
REMARK  139  A    between atoms: _345  and  _346
REMARK  140  A    between atoms: _345  and  _348
REMARK  141  A    between atoms: _348  and  _349
REMARK  142  A    between atoms: _352  and  _354
REMARK  143  A    between atoms: _354  and  _355
REMARK  144  A    between atoms: _358  and  _359
REMARK  145  A    between atoms: _364  and  _366
REMARK  146  A    between atoms: _366  and  _367
REMARK  147  A    between atoms: _370  and  _372
REMARK  148  A    between atoms: _372  and  _373
REMARK  149  A    between atoms: _372  and  _375
REMARK  150  A    between atoms: _375  and  _376
REMARK  151  A    between atoms: _376  and  _377
REMARK  152  A    between atoms: _377  and  _378
REMARK  153  A    between atoms: _387  and  _389
REMARK  154  A    between atoms: _389  and  _390
REMARK  155  A    between atoms: _389  and  _392
REMARK  156  A    between atoms: _392  and  _393
REMARK  157  A    between atoms: _396  and  _398
REMARK  158  A    between atoms: _398  and  _399
REMARK  159  A    between atoms: _402  and  _404
REMARK  160  A    between atoms: _404  and  _405
REMARK  161  A    between atoms: _404  and  _407
REMARK  162  A    between atoms: _407  and  _408
REMARK  163  A    between atoms: _408  and  _409
REMARK  164  A    between atoms: _412  and  _414
REMARK  165  A    between atoms: _414  and  _415
REMARK  166  A    between atoms: _414  and  _417
REMARK  167  A    between atoms: _417  and  _418
REMARK  168  A    between atoms: _428  and  _430
REMARK  169  A    between atoms: _430  and  _431
REMARK  170  A    between atoms: _434  and  _436
REMARK  171  A    between atoms: _436  and  _437
REMARK  172  A    between atoms: _436  and  _439
REMARK  173  A    between atoms: _439  and  _440
REMARK  174  A    between atoms: _442  and  _444
REMARK  175  A    between atoms: _444  and  _445
REMARK  176  A    between atoms: _447  and  _449
REMARK  177  A    between atoms: _449  and  _450
REMARK  178  A    between atoms: _449  and  _452
REMARK  179  A    between atoms: _452  and  _453
REMARK  180  A    between atoms: _458  and  _460
REMARK  181  A    between atoms: _460  and  _461
REMARK  182  A    between atoms: _463  and  _465
REMARK  183  A    between atoms: _465  and  _466
REMARK  184  A    between atoms: _465  and  _468
REMARK  185  A    between atoms: _468  and  _469
REMARK  186  A    between atoms: _469  and  _471
REMARK  187  A    between atoms: _471  and  CA_629
REMARK  188  A    between atoms: _472  and  _474
REMARK  189  A    between atoms: _474  and  _475
REMARK  190  A    between atoms: _474  and  _477
REMARK  191  A    between atoms: _477  and  _478
REMARK  192  A    between atoms: _480  and  _482
REMARK  193  A    between atoms: _482  and  _483
REMARK  194  A    between atoms: _482  and  _485
REMARK  195  A    between atoms: _487  and  _489
REMARK  196  A    between atoms: _489  and  _490
REMARK  197  A    between atoms: _489  and  _492
REMARK  198  A    between atoms: _494  and  _496
REMARK  199  A    between atoms: _496  and  _497
REMARK  200  A    between atoms: _496  and  _499
REMARK  201  A    between atoms: _499  and  _500
REMARK  202  A    between atoms: _503  and  _505
REMARK  203  A    between atoms: _505  and  _506
REMARK  204  A    between atoms: _508  and  _510
REMARK  205  A    between atoms: _510  and  _511
REMARK  206  A    between atoms: _510  and  _513
REMARK  207  A    between atoms: _513  and  _514
REMARK  208  A    between atoms: _519  and  _520
REMARK  209  A    between atoms: _522  and  _524
REMARK  210  A    between atoms: _524  and  _525
REMARK  211  A    between atoms: _524  and  _527
REMARK  212  A    between atoms: _527  and  _528
REMARK  213  A    between atoms: _531  and  _533
REMARK  214  A    between atoms: _533  and  _534
REMARK  215  A    between atoms: _533  and  _536
REMARK  216  A    between atoms: _536  and  _537
REMARK  217  A    between atoms: _542  and  _544
REMARK  218  A    between atoms: _544  and  _545
REMARK  219  A    between atoms: _544  and  _547
REMARK  220  A    between atoms: _547  and  _548
REMARK  221  A    between atoms: _551  and  _553
REMARK  222  A    between atoms: _553  and  _554
REMARK  223  A    between atoms: _553  and  _556
REMARK  224  A    between atoms: _556  and  _557
REMARK  225  A    between atoms: _559  and  _561
REMARK  226  A    between atoms: _561  and  _562
REMARK  227  A    between atoms: _561  and  _564
REMARK  228  A    between atoms: _564  and  _565
REMARK  229  A    between atoms: _568  and  _570
REMARK  230  A    between atoms: _570  and  _571
REMARK  231  A    between atoms: _570  and  _573
REMARK  232  A    between atoms: _573  and  _574
REMARK  233  A    between atoms: _574  and  _575
REMARK  234  A    between atoms: _578  and  _580
REMARK  235  A    between atoms: _580  and  _581
REMARK  236  A    between atoms: _580  and  _583
REMARK  237  A    between atoms: _583  and  _584
REMARK  238  A    between atoms: _587  and  _589
REMARK  239  A    between atoms: _589  and  _590
REMARK  240  A    between atoms: _592  and  _594
REMARK  241  A    between atoms: _594  and  _595
REMARK  242  A    between atoms: _594  and  _597
REMARK  243  A    between atoms: _597  and  _598
REMARK  244  A    between atoms: _601  and  _603
REMARK  245  A    between atoms: _603  and  _604
REMARK  246  A    between atoms: _603  and  _606
REMARK  247  A    between atoms: _606  and  _607
REMARK  248  A    between atoms: _609  and  _611
REMARK  249  A    between atoms: _611  and  _612
REMARK  250  A    between atoms: _615  and  _617
REMARK  251  A    between atoms: _617  and  _618
REMARK  252  A    between atoms: _617  and  _620
REMARK  253  A    between atoms: _620  and  _621
REMARK  254  A    between atoms: _623  and  _625
REMARK  255  A    between atoms: _625  and  _626
REMARK                            x       y       z     vdW  Elec       q    Type
REMARK                         _______ _______ _______ _____ _____    ______ ____
ROOT
ATOM      1  O   HOH     1      26.516  39.597  -5.363  0.00  0.00    +0.000 OA
ENDROOT
TORSDOF 0
REMARK  Name = ../refined-set-2016/4ryd/4ryd_pocket.pdb
REMARK  255 active torsions:
REMARK  status: ('A' for Active; 'I' for Inactive)
REMARK    1  A    between atoms: _1  and  _3
REMARK    2  A    between atoms: _3  and  _4
REMARK    3  A    between atoms: _3  and  _6
REMARK    4  A    between atoms: _6  and  _7
REMARK    5  A    between atoms: _10  and  _12
REMARK    6  A    between atoms: _12  and  _13
REMARK    7  A    between atoms: _12  and  _15
REMARK    8  A    between atoms: _15  and  _16
REMARK    9  A    between atoms: _19  and  _21
REMARK   10  A    between atoms: _21  and  _22
REMARK   11  A    between atoms: _24  and  _26
REMARK   12  A    between atoms: _26  and  _27
REMARK   13  A    between atoms: _26  and  _29
REMARK   14  A    between atoms: _29  and  _30
REMARK   15  A    between atoms: _35  and  _37
REMARK   16  A    between atoms: _37  and  _38
REMARK   17  A    between atoms: _37  and  _40
REMARK   18  A    between atoms: _40  and  _41
REMARK   19  A    between atoms: _41  and  _42
REMARK   20  A    between atoms: _42  and  _43
REMARK   21  A    between atoms: _52  and  _54
REMARK   22  A    between atoms: _54  and  _55
REMARK   23  A    between atoms: _54  and  _57
REMARK   24  A    between atoms: _57  and  _58
REMARK   25  A    between atoms: _61  and  _63
REMARK   26  A    between atoms: _63  and  _64
REMARK   27  A    between atoms: _63  and  _66
REMARK   28  A    between atoms: _66  and  _67
REMARK   29  A    between atoms: _72  and  _74
REMARK   30  A    between atoms: _74  and  _75
REMARK   31  A    between atoms: _74  and  _77
REMARK   32  A    between atoms: _77  and  _78
REMARK   33  A    between atoms: _81  and  _83
REMARK   34  A    between atoms: _83  and  _84
REMARK   35  A    between atoms: _83  and  _86
REMARK   36  A    between atoms: _86  and  _87
REMARK   37  A    between atoms: _92  and  _94
REMARK   38  A    between atoms: _94  and  _95
REMARK   39  A    between atoms: _94  and  _97
REMARK   40  A    between atoms: _97  and  _98
REMARK   41  A    between atoms: _98  and  _99
REMARK   42  A    between atoms: _99  and  _100
REMARK   43  A    between atoms: _109  and  _111
REMARK   44  A    between atoms: _111  and  _112
REMARK   45  A    between atoms: _111  and  _114
REMARK   46  A    between atoms: _114  and  _115
REMARK   47  A    between atoms: _120  and  _122
REMARK   48  A    between atoms: _122  and  _123
REMARK   49  A    between atoms: _125  and  _127
REMARK   50  A    between atoms: _127  and  _128
REMARK   51  A    between atoms: _127  and  _130
REMARK   52  A    between atoms: _130  and  _131
REMARK   53  A    between atoms: _134  and  _136
REMARK   54  A    between atoms: _136  and  _137
REMARK   55  A    between atoms: _136  and  _139
REMARK   56  A    between atoms: _141  and  _143
REMARK   57  A    between atoms: _143  and  _144
REMARK   58  A    between atoms: _143  and  _146
REMARK   59  A    between atoms: _146  and  _147
REMARK   60  A    between atoms: _147  and  _148
REMARK   61  A    between atoms: _148  and  _149
REMARK   62  A    between atoms: _158  and  _160
REMARK   63  A    between atoms: _160  and  _161
REMARK   64  A    between atoms: _160  and  _163
REMARK   65  A    between atoms: _163  and  _164
REMARK   66  A    between atoms: _164  and  _165
REMARK   67  A    between atoms: _167  and  _169
REMARK   68  A    between atoms: _169  and  _170
REMARK   69  A    between atoms: _169  and  _172
REMARK   70  A    between atoms: _172  and  _173
REMARK   71  A    between atoms: _176  and  _178
REMARK   72  A    between atoms: _178  and  _179
REMARK   73  A    between atoms: _178  and  _181
REMARK   74  A    between atoms: _181  and  _182
REMARK   75  A    between atoms: _185  and  _187
REMARK   76  A    between atoms: _187  and  _188
REMARK   77  A    between atoms: _190  and  _192
REMARK   78  A    between atoms: _192  and  _193
REMARK   79  A    between atoms: _192  and  _195
REMARK   80  A    between atoms: _195  and  _196
REMARK   81  A    between atoms: _196  and  _197
REMARK   82  A    between atoms: _200  and  _202
REMARK   83  A    between atoms: _202  and  _203
REMARK   84  A    between atoms: _202  and  _205
REMARK   85  A    between atoms: _208  and  _210
REMARK   86  A    between atoms: _210  and  _211
REMARK   87  A    between atoms: _210  and  _213
REMARK   88  A    between atoms: _213  and  _214
REMARK   89  A    between atoms: _217  and  _219
REMARK   90  A    between atoms: _219  and  _220
REMARK   91  A    between atoms: _219  and  _222
REMARK   92  A    between atoms: _222  and  _223
REMARK   93  A    between atoms: _226  and  _228
REMARK   94  A    between atoms: _228  and  _229
REMARK   95  A    between atoms: _232  and  _234
REMARK   96  A    between atoms: _234  and  _235
REMARK   97  A    between atoms: _234  and  _237
REMARK   98  A    between atoms: _240  and  _242
REMARK   99  A    between atoms: _242  and  _243
REMARK  100  A    between atoms: _242  and  _245
REMARK  101  A    between atoms: _245  and  _246
REMARK  102  A    between atoms: _246  and  _247
REMARK  103  A    between atoms: _250  and  _252
REMARK  104  A    between atoms: _252  and  _253
REMARK  105  A    between atoms: _256  and  _258
REMARK  106  A    between atoms: _258  and  _259
REMARK  107  A    between atoms: _262  and  _264
REMARK  108  A    between atoms: _264  and  _265
REMARK  109  A    between atoms: _264  and  _267
REMARK  110  A    between atoms: _267  and  _268
REMARK  111  A    between atoms: _270  and  _272
REMARK  112  A    between atoms: _272  and  _273
REMARK  113  A    between atoms: _272  and  _275
REMARK  114  A    between atoms: _275  and  _276
REMARK  115  A    between atoms: _286  and  _288
REMARK  116  A    between atoms: _288  and  _289
REMARK  117  A    between atoms: _292  and  _293
REMARK  118  A    between atoms: _298  and  _300
REMARK  119  A    between atoms: _300  and  _301
REMARK  120  A    between atoms: _300  and  _303
REMARK  121  A    between atoms: _303  and  _304
REMARK  122  A    between atoms: _304  and  _305
REMARK  123  A    between atoms: _308  and  _310
REMARK  124  A    between atoms: _310  and  _311
REMARK  125  A    between atoms: _310  and  _313
REMARK  126  A    between atoms: _313  and  _314
REMARK  127  A    between atoms: _317  and  _319
REMARK  128  A    between atoms: _319  and  _320
REMARK  129  A    between atoms: _319  and  _322
REMARK  130  A    between atoms: _322  and  _323
REMARK  131  A    between atoms: _326  and  _328
REMARK  132  A    between atoms: _328  and  _329
REMARK  133  A    between atoms: _328  and  _331
REMARK  134  A    between atoms: _331  and  _332
REMARK  135  A    between atoms: _335  and  _337
REMARK  136  A    between atoms: _337  and  _338
REMARK  137  A    between atoms: _337  and  _340
REMARK  138  A    between atoms: _343  and  _345
REMARK  139  A    between atoms: _345  and  _346
REMARK  140  A    between atoms: _345  and  _348
REMARK  141  A    between atoms: _348  and  _349
REMARK  142  A    between atoms: _352  and  _354
REMARK  143  A    between atoms: _354  and  _355
REMARK  144  A    between atoms: _358  and  _359
REMARK  145  A    between atoms: _364  and  _366
REMARK  146  A    between atoms: _366  and  _367
REMARK  147  A    between atoms: _370  and  _372
REMARK  148  A    between atoms: _372  and  _373
REMARK  149  A    between atoms: _372  and  _375
REMARK  150  A    between atoms: _375  and  _376
REMARK  151  A    between atoms: _376  and  _377
REMARK  152  A    between atoms: _377  and  _378
REMARK  153  A    between atoms: _387  and  _389
REMARK  154  A    between atoms: _389  and  _390
REMARK  155  A    between atoms: _389  and  _392
REMARK  156  A    between atoms: _392  and  _393
REMARK  157  A    between atoms: _396  and  _398
REMARK  158  A    between atoms: _398  and  _399
REMARK  159  A    between atoms: _402  and  _404
REMARK  160  A    between atoms: _404  and  _405
REMARK  161  A    between atoms: _404  and  _407
REMARK  162  A    between atoms: _407  and  _408
REMARK  163  A    between atoms: _408  and  _409
REMARK  164  A    between atoms: _412  and  _414
REMARK  165  A    between atoms: _414  and  _415
REMARK  166  A    between atoms: _414  and  _417
REMARK  167  A    between atoms: _417  and  _418
REMARK  168  A    between atoms: _428  and  _430
REMARK  169  A    between atoms: _430  and  _431
REMARK  170  A    between atoms: _434  and  _436
REMARK  171  A    between atoms: _436  and  _437
REMARK  172  A    between atoms: _436  and  _439
REMARK  173  A    between atoms: _439  and  _440
REMARK  174  A    between atoms: _442  and  _444
REMARK  175  A    between atoms: _444  and  _445
REMARK  176  A    between atoms: _447  and  _449
REMARK  177  A    between atoms: _449  and  _450
REMARK  178  A    between atoms: _449  and  _452
REMARK  179  A    between atoms: _452  and  _453
REMARK  180  A    between atoms: _458  and  _460
REMARK  181  A    between atoms: _460  and  _461
REMARK  182  A    between atoms: _463  and  _465
REMARK  183  A    between atoms: _465  and  _466
REMARK  184  A    between atoms: _465  and  _468
REMARK  185  A    between atoms: _468  and  _469
REMARK  186  A    between atoms: _469  and  _471
REMARK  187  A    between atoms: _471  and  CA_629
REMARK  188  A    between atoms: _472  and  _474
REMARK  189  A    between atoms: _474  and  _475
REMARK  190  A    between atoms: _474  and  _477
REMARK  191  A    between atoms: _477  and  _478
REMARK  192  A    between atoms: _480  and  _482
REMARK  193  A    between atoms: _482  and  _483
REMARK  194  A    between atoms: _482  and  _485
REMARK  195  A    between atoms: _487  and  _489
REMARK  196  A    between atoms: _489  and  _490
REMARK  197  A    between atoms: _489  and  _492
REMARK  198  A    between atoms: _494  and  _496
REMARK  199  A    between atoms: _496  and  _497
REMARK  200  A    between atoms: _496  and  _499
REMARK  201  A    between atoms: _499  and  _500
REMARK  202  A    between atoms: _503  and  _505
REMARK  203  A    between atoms: _505  and  _506
REMARK  204  A    between atoms: _508  and  _510
REMARK  205  A    between atoms: _510  and  _511
REMARK  206  A    between atoms: _510  and  _513
REMARK  207  A    between atoms: _513  and  _514
REMARK  208  A    between atoms: _519  and  _520
REMARK  209  A    between atoms: _522  and  _524
REMARK  210  A    between atoms: _524  and  _525
REMARK  211  A    between atoms: _524  and  _527
REMARK  212  A    between atoms: _527  and  _528
REMARK  213  A    between atoms: _531  and  _533
REMARK  214  A    between atoms: _533  and  _534
REMARK  215  A    between atoms: _533  and  _536
REMARK  216  A    between atoms: _536  and  _537
REMARK  217  A    between atoms: _542  and  _544
REMARK  218  A    between atoms: _544  and  _545
REMARK  219  A    between atoms: _544  and  _547
REMARK  220  A    between atoms: _547  and  _548
REMARK  221  A    between atoms: _551  and  _553
REMARK  222  A    between atoms: _553  and  _554
REMARK  223  A    between atoms: _553  and  _556
REMARK  224  A    between atoms: _556  and  _557
REMARK  225  A    between atoms: _559  and  _561
REMARK  226  A    between atoms: _561  and  _562
REMARK  227  A    between atoms: _561  and  _564
REMARK  228  A    between atoms: _564  and  _565
REMARK  229  A    between atoms: _568  and  _570
REMARK  230  A    between atoms: _570  and  _571
REMARK  231  A    between atoms: _570  and  _573
REMARK  232  A    between atoms: _573  and  _574
REMARK  233  A    between atoms: _574  and  _575
REMARK  234  A    between atoms: _578  and  _580
REMARK  235  A    between atoms: _580  and  _581
REMARK  236  A    between atoms: _580  and  _583
REMARK  237  A    between atoms: _583  and  _584
REMARK  238  A    between atoms: _587  and  _589
REMARK  239  A    between atoms: _589  and  _590
REMARK  240  A    between atoms: _592  and  _594
REMARK  241  A    between atoms: _594  and  _595
REMARK  242  A    between atoms: _594  and  _597
REMARK  243  A    between atoms: _597  and  _598
REMARK  244  A    between atoms: _601  and  _603
REMARK  245  A    between atoms: _603  and  _604
REMARK  246  A    between atoms: _603  and  _606
REMARK  247  A    between atoms: _606  and  _607
REMARK  248  A    between atoms: _609  and  _611
REMARK  249  A    between atoms: _611  and  _612
REMARK  250  A    between atoms: _615  and  _617
REMARK  251  A    between atoms: _617  and  _618
REMARK  252  A    between atoms: _617  and  _620
REMARK  253  A    between atoms: _620  and  _621
REMARK  254  A    between atoms: _623  and  _625
REMARK  255  A    between atoms: _625  and  _626
REMARK                            x       y       z     vdW  Elec       q    Type
REMARK                         _______ _______ _______ _____ _____    ______ ____
ROOT
ATOM      1  O   HOH     1      27.188  38.577  -7.624  0.00  0.00    +0.000 OA
ENDROOT
TORSDOF 0
REMARK  Name = ../refined-set-2016/4ryd/4ryd_pocket.pdb
REMARK  255 active torsions:
REMARK  status: ('A' for Active; 'I' for Inactive)
REMARK    1  A    between atoms: _1  and  _3
REMARK    2  A    between atoms: _3  and  _4
REMARK    3  A    between atoms: _3  and  _6
REMARK    4  A    between atoms: _6  and  _7
REMARK    5  A    between atoms: _10  and  _12
REMARK    6  A    between atoms: _12  and  _13
REMARK    7  A    between atoms: _12  and  _15
REMARK    8  A    between atoms: _15  and  _16
REMARK    9  A    between atoms: _19  and  _21
REMARK   10  A    between atoms: _21  and  _22
REMARK   11  A    between atoms: _24  and  _26
REMARK   12  A    between atoms: _26  and  _27
REMARK   13  A    between atoms: _26  and  _29
REMARK   14  A    between atoms: _29  and  _30
REMARK   15  A    between atoms: _35  and  _37
REMARK   16  A    between atoms: _37  and  _38
REMARK   17  A    between atoms: _37  and  _40
REMARK   18  A    between atoms: _40  and  _41
REMARK   19  A    between atoms: _41  and  _42
REMARK   20  A    between atoms: _42  and  _43
REMARK   21  A    between atoms: _52  and  _54
REMARK   22  A    between atoms: _54  and  _55
REMARK   23  A    between atoms: _54  and  _57
REMARK   24  A    between atoms: _57  and  _58
REMARK   25  A    between atoms: _61  and  _63
REMARK   26  A    between atoms: _63  and  _64
REMARK   27  A    between atoms: _63  and  _66
REMARK   28  A    between atoms: _66  and  _67
REMARK   29  A    between atoms: _72  and  _74
REMARK   30  A    between atoms: _74  and  _75
REMARK   31  A    between atoms: _74  and  _77
REMARK   32  A    between atoms: _77  and  _78
REMARK   33  A    between atoms: _81  and  _83
REMARK   34  A    between atoms: _83  and  _84
REMARK   35  A    between atoms: _83  and  _86
REMARK   36  A    between atoms: _86  and  _87
REMARK   37  A    between atoms: _92  and  _94
REMARK   38  A    between atoms: _94  and  _95
REMARK   39  A    between atoms: _94  and  _97
REMARK   40  A    between atoms: _97  and  _98
REMARK   41  A    between atoms: _98  and  _99
REMARK   42  A    between atoms: _99  and  _100
REMARK   43  A    between atoms: _109  and  _111
REMARK   44  A    between atoms: _111  and  _112
REMARK   45  A    between atoms: _111  and  _114
REMARK   46  A    between atoms: _114  and  _115
REMARK   47  A    between atoms: _120  and  _122
REMARK   48  A    between atoms: _122  and  _123
REMARK   49  A    between atoms: _125  and  _127
REMARK   50  A    between atoms: _127  and  _128
REMARK   51  A    between atoms: _127  and  _130
REMARK   52  A    between atoms: _130  and  _131
REMARK   53  A    between atoms: _134  and  _136
REMARK   54  A    between atoms: _136  and  _137
REMARK   55  A    between atoms: _136  and  _139
REMARK   56  A    between atoms: _141  and  _143
REMARK   57  A    between atoms: _143  and  _144
REMARK   58  A    between atoms: _143  and  _146
REMARK   59  A    between atoms: _146  and  _147
REMARK   60  A    between atoms: _147  and  _148
REMARK   61  A    between atoms: _148  and  _149
REMARK   62  A    between atoms: _158  and  _160
REMARK   63  A    between atoms: _160  and  _161
REMARK   64  A    between atoms: _160  and  _163
REMARK   65  A    between atoms: _163  and  _164
REMARK   66  A    between atoms: _164  and  _165
REMARK   67  A    between atoms: _167  and  _169
REMARK   68  A    between atoms: _169  and  _170
REMARK   69  A    between atoms: _169  and  _172
REMARK   70  A    between atoms: _172  and  _173
REMARK   71  A    between atoms: _176  and  _178
REMARK   72  A    between atoms: _178  and  _179
REMARK   73  A    between atoms: _178  and  _181
REMARK   74  A    between atoms: _181  and  _182
REMARK   75  A    between atoms: _185  and  _187
REMARK   76  A    between atoms: _187  and  _188
REMARK   77  A    between atoms: _190  and  _192
REMARK   78  A    between atoms: _192  and  _193
REMARK   79  A    between atoms: _192  and  _195
REMARK   80  A    between atoms: _195  and  _196
REMARK   81  A    between atoms: _196  and  _197
REMARK   82  A    between atoms: _200  and  _202
REMARK   83  A    between atoms: _202  and  _203
REMARK   84  A    between atoms: _202  and  _205
REMARK   85  A    between atoms: _208  and  _210
REMARK   86  A    between atoms: _210  and  _211
REMARK   87  A    between atoms: _210  and  _213
REMARK   88  A    between atoms: _213  and  _214
REMARK   89  A    between atoms: _217  and  _219
REMARK   90  A    between atoms: _219  and  _220
REMARK   91  A    between atoms: _219  and  _222
REMARK   92  A    between atoms: _222  and  _223
REMARK   93  A    between atoms: _226  and  _228
REMARK   94  A    between atoms: _228  and  _229
REMARK   95  A    between atoms: _232  and  _234
REMARK   96  A    between atoms: _234  and  _235
REMARK   97  A    between atoms: _234  and  _237
REMARK   98  A    between atoms: _240  and  _242
REMARK   99  A    between atoms: _242  and  _243
REMARK  100  A    between atoms: _242  and  _245
REMARK  101  A    between atoms: _245  and  _246
REMARK  102  A    between atoms: _246  and  _247
REMARK  103  A    between atoms: _250  and  _252
REMARK  104  A    between atoms: _252  and  _253
REMARK  105  A    between atoms: _256  and  _258
REMARK  106  A    between atoms: _258  and  _259
REMARK  107  A    between atoms: _262  and  _264
REMARK  108  A    between atoms: _264  and  _265
REMARK  109  A    between atoms: _264  and  _267
REMARK  110  A    between atoms: _267  and  _268
REMARK  111  A    between atoms: _270  and  _272
REMARK  112  A    between atoms: _272  and  _273
REMARK  113  A    between atoms: _272  and  _275
REMARK  114  A    between atoms: _275  and  _276
REMARK  115  A    between atoms: _286  and  _288
REMARK  116  A    between atoms: _288  and  _289
REMARK  117  A    between atoms: _292  and  _293
REMARK  118  A    between atoms: _298  and  _300
REMARK  119  A    between atoms: _300  and  _301
REMARK  120  A    between atoms: _300  and  _303
REMARK  121  A    between atoms: _303  and  _304
REMARK  122  A    between atoms: _304  and  _305
REMARK  123  A    between atoms: _308  and  _310
REMARK  124  A    between atoms: _310  and  _311
REMARK  125  A    between atoms: _310  and  _313
REMARK  126  A    between atoms: _313  and  _314
REMARK  127  A    between atoms: _317  and  _319
REMARK  128  A    between atoms: _319  and  _320
REMARK  129  A    between atoms: _319  and  _322
REMARK  130  A    between atoms: _322  and  _323
REMARK  131  A    between atoms: _326  and  _328
REMARK  132  A    between atoms: _328  and  _329
REMARK  133  A    between atoms: _328  and  _331
REMARK  134  A    between atoms: _331  and  _332
REMARK  135  A    between atoms: _335  and  _337
REMARK  136  A    between atoms: _337  and  _338
REMARK  137  A    between atoms: _337  and  _340
REMARK  138  A    between atoms: _343  and  _345
REMARK  139  A    between atoms: _345  and  _346
REMARK  140  A    between atoms: _345  and  _348
REMARK  141  A    between atoms: _348  and  _349
REMARK  142  A    between atoms: _352  and  _354
REMARK  143  A    between atoms: _354  and  _355
REMARK  144  A    between atoms: _358  and  _359
REMARK  145  A    between atoms: _364  and  _366
REMARK  146  A    between atoms: _366  and  _367
REMARK  147  A    between atoms: _370  and  _372
REMARK  148  A    between atoms: _372  and  _373
REMARK  149  A    between atoms: _372  and  _375
REMARK  150  A    between atoms: _375  and  _376
REMARK  151  A    between atoms: _376  and  _377
REMARK  152  A    between atoms: _377  and  _378
REMARK  153  A    between atoms: _387  and  _389
REMARK  154  A    between atoms: _389  and  _390
REMARK  155  A    between atoms: _389  and  _392
REMARK  156  A    between atoms: _392  and  _393
REMARK  157  A    between atoms: _396  and  _398
REMARK  158  A    between atoms: _398  and  _399
REMARK  159  A    between atoms: _402  and  _404
REMARK  160  A    between atoms: _404  and  _405
REMARK  161  A    between atoms: _404  and  _407
REMARK  162  A    between atoms: _407  and  _408
REMARK  163  A    between atoms: _408  and  _409
REMARK  164  A    between atoms: _412  and  _414
REMARK  165  A    between atoms: _414  and  _415
REMARK  166  A    between atoms: _414  and  _417
REMARK  167  A    between atoms: _417  and  _418
REMARK  168  A    between atoms: _428  and  _430
REMARK  169  A    between atoms: _430  and  _431
REMARK  170  A    between atoms: _434  and  _436
REMARK  171  A    between atoms: _436  and  _437
REMARK  172  A    between atoms: _436  and  _439
REMARK  173  A    between atoms: _439  and  _440
REMARK  174  A    between atoms: _442  and  _444
REMARK  175  A    between atoms: _444  and  _445
REMARK  176  A    between atoms: _447  and  _449
REMARK  177  A    between atoms: _449  and  _450
REMARK  178  A    between atoms: _449  and  _452
REMARK  179  A    between atoms: _452  and  _453
REMARK  180  A    between atoms: _458  and  _460
REMARK  181  A    between atoms: _460  and  _461
REMARK  182  A    between atoms: _463  and  _465
REMARK  183  A    between atoms: _465  and  _466
REMARK  184  A    between atoms: _465  and  _468
REMARK  185  A    between atoms: _468  and  _469
REMARK  186  A    between atoms: _469  and  _471
REMARK  187  A    between atoms: _471  and  CA_629
REMARK  188  A    between atoms: _472  and  _474
REMARK  189  A    between atoms: _474  and  _475
REMARK  190  A    between atoms: _474  and  _477
REMARK  191  A    between atoms: _477  and  _478
REMARK  192  A    between atoms: _480  and  _482
REMARK  193  A    between atoms: _482  and  _483
REMARK  194  A    between atoms: _482  and  _485
REMARK  195  A    between atoms: _487  and  _489
REMARK  196  A    between atoms: _489  and  _490
REMARK  197  A    between atoms: _489  and  _492
REMARK  198  A    between atoms: _494  and  _496
REMARK  199  A    between atoms: _496  and  _497
REMARK  200  A    between atoms: _496  and  _499
REMARK  201  A    between atoms: _499  and  _500
REMARK  202  A    between atoms: _503  and  _505
REMARK  203  A    between atoms: _505  and  _506
REMARK  204  A    between atoms: _508  and  _510
REMARK  205  A    between atoms: _510  and  _511
REMARK  206  A    between atoms: _510  and  _513
REMARK  207  A    between atoms: _513  and  _514
REMARK  208  A    between atoms: _519  and  _520
REMARK  209  A    between atoms: _522  and  _524
REMARK  210  A    between atoms: _524  and  _525
REMARK  211  A    between atoms: _524  and  _527
REMARK  212  A    between atoms: _527  and  _528
REMARK  213  A    between atoms: _531  and  _533
REMARK  214  A    between atoms: _533  and  _534
REMARK  215  A    between atoms: _533  and  _536
REMARK  216  A    between atoms: _536  and  _537
REMARK  217  A    between atoms: _542  and  _544
REMARK  218  A    between atoms: _544  and  _545
REMARK  219  A    between atoms: _544  and  _547
REMARK  220  A    between atoms: _547  and  _548
REMARK  221  A    between atoms: _551  and  _553
REMARK  222  A    between atoms: _553  and  _554
REMARK  223  A    between atoms: _553  and  _556
REMARK  224  A    between atoms: _556  and  _557
REMARK  225  A    between atoms: _559  and  _561
REMARK  226  A    between atoms: _561  and  _562
REMARK  227  A    between atoms: _561  and  _564
REMARK  228  A    between atoms: _564  and  _565
REMARK  229  A    between atoms: _568  and  _570
REMARK  230  A    between atoms: _570  and  _571
REMARK  231  A    between atoms: _570  and  _573
REMARK  232  A    between atoms: _573  and  _574
REMARK  233  A    between atoms: _574  and  _575
REMARK  234  A    between atoms: _578  and  _580
REMARK  235  A    between atoms: _580  and  _581
REMARK  236  A    between atoms: _580  and  _583
REMARK  237  A    between atoms: _583  and  _584
REMARK  238  A    between atoms: _587  and  _589
REMARK  239  A    between atoms: _589  and  _590
REMARK  240  A    between atoms: _592  and  _594
REMARK  241  A    between atoms: _594  and  _595
REMARK  242  A    between atoms: _594  and  _597
REMARK  243  A    between atoms: _597  and  _598
REMARK  244  A    between atoms: _601  and  _603
REMARK  245  A    between atoms: _603  and  _604
REMARK  246  A    between atoms: _603  and  _606
REMARK  247  A    between atoms: _606  and  _607
REMARK  248  A    between atoms: _609  and  _611
REMARK  249  A    between atoms: _611  and  _612
REMARK  250  A    between atoms: _615  and  _617
REMARK  251  A    between atoms: _617  and  _618
REMARK  252  A    between atoms: _617  and  _620
REMARK  253  A    between atoms: _620  and  _621
REMARK  254  A    between atoms: _623  and  _625
REMARK  255  A    between atoms: _625  and  _626
REMARK                            x       y       z     vdW  Elec       q    Type
REMARK                         _______ _______ _______ _____ _____    ______ ____
ROOT
ATOM      1  O   HOH     1      34.802  32.666  -6.486  0.00  0.00    +0.000 OA
ENDROOT
TORSDOF 0
REMARK  Name = ../refined-set-2016/4ryd/4ryd_pocket.pdb
REMARK  255 active torsions:
REMARK  status: ('A' for Active; 'I' for Inactive)
REMARK    1  A    between atoms: _1  and  _3
REMARK    2  A    between atoms: _3  and  _4
REMARK    3  A    between atoms: _3  and  _6
REMARK    4  A    between atoms: _6  and  _7
REMARK    5  A    between atoms: _10  and  _12
REMARK    6  A    between atoms: _12  and  _13
REMARK    7  A    between atoms: _12  and  _15
REMARK    8  A    between atoms: _15  and  _16
REMARK    9  A    between atoms: _19  and  _21
REMARK   10  A    between atoms: _21  and  _22
REMARK   11  A    between atoms: _24  and  _26
REMARK   12  A    between atoms: _26  and  _27
REMARK   13  A    between atoms: _26  and  _29
REMARK   14  A    between atoms: _29  and  _30
REMARK   15  A    between atoms: _35  and  _37
REMARK   16  A    between atoms: _37  and  _38
REMARK   17  A    between atoms: _37  and  _40
REMARK   18  A    between atoms: _40  and  _41
REMARK   19  A    between atoms: _41  and  _42
REMARK   20  A    between atoms: _42  and  _43
REMARK   21  A    between atoms: _52  and  _54
REMARK   22  A    between atoms: _54  and  _55
REMARK   23  A    between atoms: _54  and  _57
REMARK   24  A    between atoms: _57  and  _58
REMARK   25  A    between atoms: _61  and  _63
REMARK   26  A    between atoms: _63  and  _64
REMARK   27  A    between atoms: _63  and  _66
REMARK   28  A    between atoms: _66  and  _67
REMARK   29  A    between atoms: _72  and  _74
REMARK   30  A    between atoms: _74  and  _75
REMARK   31  A    between atoms: _74  and  _77
REMARK   32  A    between atoms: _77  and  _78
REMARK   33  A    between atoms: _81  and  _83
REMARK   34  A    between atoms: _83  and  _84
REMARK   35  A    between atoms: _83  and  _86
REMARK   36  A    between atoms: _86  and  _87
REMARK   37  A    between atoms: _92  and  _94
REMARK   38  A    between atoms: _94  and  _95
REMARK   39  A    between atoms: _94  and  _97
REMARK   40  A    between atoms: _97  and  _98
REMARK   41  A    between atoms: _98  and  _99
REMARK   42  A    between atoms: _99  and  _100
REMARK   43  A    between atoms: _109  and  _111
REMARK   44  A    between atoms: _111  and  _112
REMARK   45  A    between atoms: _111  and  _114
REMARK   46  A    between atoms: _114  and  _115
REMARK   47  A    between atoms: _120  and  _122
REMARK   48  A    between atoms: _122  and  _123
REMARK   49  A    between atoms: _125  and  _127
REMARK   50  A    between atoms: _127  and  _128
REMARK   51  A    between atoms: _127  and  _130
REMARK   52  A    between atoms: _130  and  _131
REMARK   53  A    between atoms: _134  and  _136
REMARK   54  A    between atoms: _136  and  _137
REMARK   55  A    between atoms: _136  and  _139
REMARK   56  A    between atoms: _141  and  _143
REMARK   57  A    between atoms: _143  and  _144
REMARK   58  A    between atoms: _143  and  _146
REMARK   59  A    between atoms: _146  and  _147
REMARK   60  A    between atoms: _147  and  _148
REMARK   61  A    between atoms: _148  and  _149
REMARK   62  A    between atoms: _158  and  _160
REMARK   63  A    between atoms: _160  and  _161
REMARK   64  A    between atoms: _160  and  _163
REMARK   65  A    between atoms: _163  and  _164
REMARK   66  A    between atoms: _164  and  _165
REMARK   67  A    between atoms: _167  and  _169
REMARK   68  A    between atoms: _169  and  _170
REMARK   69  A    between atoms: _169  and  _172
REMARK   70  A    between atoms: _172  and  _173
REMARK   71  A    between atoms: _176  and  _178
REMARK   72  A    between atoms: _178  and  _179
REMARK   73  A    between atoms: _178  and  _181
REMARK   74  A    between atoms: _181  and  _182
REMARK   75  A    between atoms: _185  and  _187
REMARK   76  A    between atoms: _187  and  _188
REMARK   77  A    between atoms: _190  and  _192
REMARK   78  A    between atoms: _192  and  _193
REMARK   79  A    between atoms: _192  and  _195
REMARK   80  A    between atoms: _195  and  _196
REMARK   81  A    between atoms: _196  and  _197
REMARK   82  A    between atoms: _200  and  _202
REMARK   83  A    between atoms: _202  and  _203
REMARK   84  A    between atoms: _202  and  _205
REMARK   85  A    between atoms: _208  and  _210
REMARK   86  A    between atoms: _210  and  _211
REMARK   87  A    between atoms: _210  and  _213
REMARK   88  A    between atoms: _213  and  _214
REMARK   89  A    between atoms: _217  and  _219
REMARK   90  A    between atoms: _219  and  _220
REMARK   91  A    between atoms: _219  and  _222
REMARK   92  A    between atoms: _222  and  _223
REMARK   93  A    between atoms: _226  and  _228
REMARK   94  A    between atoms: _228  and  _229
REMARK   95  A    between atoms: _232  and  _234
REMARK   96  A    between atoms: _234  and  _235
REMARK   97  A    between atoms: _234  and  _237
REMARK   98  A    between atoms: _240  and  _242
REMARK   99  A    between atoms: _242  and  _243
REMARK  100  A    between atoms: _242  and  _245
REMARK  101  A    between atoms: _245  and  _246
REMARK  102  A    between atoms: _246  and  _247
REMARK  103  A    between atoms: _250  and  _252
REMARK  104  A    between atoms: _252  and  _253
REMARK  105  A    between atoms: _256  and  _258
REMARK  106  A    between atoms: _258  and  _259
REMARK  107  A    between atoms: _262  and  _264
REMARK  108  A    between atoms: _264  and  _265
REMARK  109  A    between atoms: _264  and  _267
REMARK  110  A    between atoms: _267  and  _268
REMARK  111  A    between atoms: _270  and  _272
REMARK  112  A    between atoms: _272  and  _273
REMARK  113  A    between atoms: _272  and  _275
REMARK  114  A    between atoms: _275  and  _276
REMARK  115  A    between atoms: _286  and  _288
REMARK  116  A    between atoms: _288  and  _289
REMARK  117  A    between atoms: _292  and  _293
REMARK  118  A    between atoms: _298  and  _300
REMARK  119  A    between atoms: _300  and  _301
REMARK  120  A    between atoms: _300  and  _303
REMARK  121  A    between atoms: _303  and  _304
REMARK  122  A    between atoms: _304  and  _305
REMARK  123  A    between atoms: _308  and  _310
REMARK  124  A    between atoms: _310  and  _311
REMARK  125  A    between atoms: _310  and  _313
REMARK  126  A    between atoms: _313  and  _314
REMARK  127  A    between atoms: _317  and  _319
REMARK  128  A    between atoms: _319  and  _320
REMARK  129  A    between atoms: _319  and  _322
REMARK  130  A    between atoms: _322  and  _323
REMARK  131  A    between atoms: _326  and  _328
REMARK  132  A    between atoms: _328  and  _329
REMARK  133  A    between atoms: _328  and  _331
REMARK  134  A    between atoms: _331  and  _332
REMARK  135  A    between atoms: _335  and  _337
REMARK  136  A    between atoms: _337  and  _338
REMARK  137  A    between atoms: _337  and  _340
REMARK  138  A    between atoms: _343  and  _345
REMARK  139  A    between atoms: _345  and  _346
REMARK  140  A    between atoms: _345  and  _348
REMARK  141  A    between atoms: _348  and  _349
REMARK  142  A    between atoms: _352  and  _354
REMARK  143  A    between atoms: _354  and  _355
REMARK  144  A    between atoms: _358  and  _359
REMARK  145  A    between atoms: _364  and  _366
REMARK  146  A    between atoms: _366  and  _367
REMARK  147  A    between atoms: _370  and  _372
REMARK  148  A    between atoms: _372  and  _373
REMARK  149  A    between atoms: _372  and  _375
REMARK  150  A    between atoms: _375  and  _376
REMARK  151  A    between atoms: _376  and  _377
REMARK  152  A    between atoms: _377  and  _378
REMARK  153  A    between atoms: _387  and  _389
REMARK  154  A    between atoms: _389  and  _390
REMARK  155  A    between atoms: _389  and  _392
REMARK  156  A    between atoms: _392  and  _393
REMARK  157  A    between atoms: _396  and  _398
REMARK  158  A    between atoms: _398  and  _399
REMARK  159  A    between atoms: _402  and  _404
REMARK  160  A    between atoms: _404  and  _405
REMARK  161  A    between atoms: _404  and  _407
REMARK  162  A    between atoms: _407  and  _408
REMARK  163  A    between atoms: _408  and  _409
REMARK  164  A    between atoms: _412  and  _414
REMARK  165  A    between atoms: _414  and  _415
REMARK  166  A    between atoms: _414  and  _417
REMARK  167  A    between atoms: _417  and  _418
REMARK  168  A    between atoms: _428  and  _430
REMARK  169  A    between atoms: _430  and  _431
REMARK  170  A    between atoms: _434  and  _436
REMARK  171  A    between atoms: _436  and  _437
REMARK  172  A    between atoms: _436  and  _439
REMARK  173  A    between atoms: _439  and  _440
REMARK  174  A    between atoms: _442  and  _444
REMARK  175  A    between atoms: _444  and  _445
REMARK  176  A    between atoms: _447  and  _449
REMARK  177  A    between atoms: _449  and  _450
REMARK  178  A    between atoms: _449  and  _452
REMARK  179  A    between atoms: _452  and  _453
REMARK  180  A    between atoms: _458  and  _460
REMARK  181  A    between atoms: _460  and  _461
REMARK  182  A    between atoms: _463  and  _465
REMARK  183  A    between atoms: _465  and  _466
REMARK  184  A    between atoms: _465  and  _468
REMARK  185  A    between atoms: _468  and  _469
REMARK  186  A    between atoms: _469  and  _471
REMARK  187  A    between atoms: _471  and  CA_629
REMARK  188  A    between atoms: _472  and  _474
REMARK  189  A    between atoms: _474  and  _475
REMARK  190  A    between atoms: _474  and  _477
REMARK  191  A    between atoms: _477  and  _478
REMARK  192  A    between atoms: _480  and  _482
REMARK  193  A    between atoms: _482  and  _483
REMARK  194  A    between atoms: _482  and  _485
REMARK  195  A    between atoms: _487  and  _489
REMARK  196  A    between atoms: _489  and  _490
REMARK  197  A    between atoms: _489  and  _492
REMARK  198  A    between atoms: _494  and  _496
REMARK  199  A    between atoms: _496  and  _497
REMARK  200  A    between atoms: _496  and  _499
REMARK  201  A    between atoms: _499  and  _500
REMARK  202  A    between atoms: _503  and  _505
REMARK  203  A    between atoms: _505  and  _506
REMARK  204  A    between atoms: _508  and  _510
REMARK  205  A    between atoms: _510  and  _511
REMARK  206  A    between atoms: _510  and  _513
REMARK  207  A    between atoms: _513  and  _514
REMARK  208  A    between atoms: _519  and  _520
REMARK  209  A    between atoms: _522  and  _524
REMARK  210  A    between atoms: _524  and  _525
REMARK  211  A    between atoms: _524  and  _527
REMARK  212  A    between atoms: _527  and  _528
REMARK  213  A    between atoms: _531  and  _533
REMARK  214  A    between atoms: _533  and  _534
REMARK  215  A    between atoms: _533  and  _536
REMARK  216  A    between atoms: _536  and  _537
REMARK  217  A    between atoms: _542  and  _544
REMARK  218  A    between atoms: _544  and  _545
REMARK  219  A    between atoms: _544  and  _547
REMARK  220  A    between atoms: _547  and  _548
REMARK  221  A    between atoms: _551  and  _553
REMARK  222  A    between atoms: _553  and  _554
REMARK  223  A    between atoms: _553  and  _556
REMARK  224  A    between atoms: _556  and  _557
REMARK  225  A    between atoms: _559  and  _561
REMARK  226  A    between atoms: _561  and  _562
REMARK  227  A    between atoms: _561  and  _564
REMARK  228  A    between atoms: _564  and  _565
REMARK  229  A    between atoms: _568  and  _570
REMARK  230  A    between atoms: _570  and  _571
REMARK  231  A    between atoms: _570  and  _573
REMARK  232  A    between atoms: _573  and  _574
REMARK  233  A    between atoms: _574  and  _575
REMARK  234  A    between atoms: _578  and  _580
REMARK  235  A    between atoms: _580  and  _581
REMARK  236  A    between atoms: _580  and  _583
REMARK  237  A    between atoms: _583  and  _584
REMARK  238  A    between atoms: _587  and  _589
REMARK  239  A    between atoms: _589  and  _590
REMARK  240  A    between atoms: _592  and  _594
REMARK  241  A    between atoms: _594  and  _595
REMARK  242  A    between atoms: _594  and  _597
REMARK  243  A    between atoms: _597  and  _598
REMARK  244  A    between atoms: _601  and  _603
REMARK  245  A    between atoms: _603  and  _604
REMARK  246  A    between atoms: _603  and  _606
REMARK  247  A    between atoms: _606  and  _607
REMARK  248  A    between atoms: _609  and  _611
REMARK  249  A    between atoms: _611  and  _612
REMARK  250  A    between atoms: _615  and  _617
REMARK  251  A    between atoms: _617  and  _618
REMARK  252  A    between atoms: _617  and  _620
REMARK  253  A    between atoms: _620  and  _621
REMARK  254  A    between atoms: _623  and  _625
REMARK  255  A    between atoms: _625  and  _626
REMARK                            x       y       z     vdW  Elec       q    Type
REMARK                         _______ _______ _______ _____ _____    ______ ____
ROOT
ATOM      1  O   HOH     1      32.647  38.413  -5.044  0.00  0.00    +0.000 OA
ENDROOT
TORSDOF 0
REMARK  Name = ../refined-set-2016/4ryd/4ryd_pocket.pdb
REMARK  255 active torsions:
REMARK  status: ('A' for Active; 'I' for Inactive)
REMARK    1  A    between atoms: _1  and  _3
REMARK    2  A    between atoms: _3  and  _4
REMARK    3  A    between atoms: _3  and  _6
REMARK    4  A    between atoms: _6  and  _7
REMARK    5  A    between atoms: _10  and  _12
REMARK    6  A    between atoms: _12  and  _13
REMARK    7  A    between atoms: _12  and  _15
REMARK    8  A    between atoms: _15  and  _16
REMARK    9  A    between atoms: _19  and  _21
REMARK   10  A    between atoms: _21  and  _22
REMARK   11  A    between atoms: _24  and  _26
REMARK   12  A    between atoms: _26  and  _27
REMARK   13  A    between atoms: _26  and  _29
REMARK   14  A    between atoms: _29  and  _30
REMARK   15  A    between atoms: _35  and  _37
REMARK   16  A    between atoms: _37  and  _38
REMARK   17  A    between atoms: _37  and  _40
REMARK   18  A    between atoms: _40  and  _41
REMARK   19  A    between atoms: _41  and  _42
REMARK   20  A    between atoms: _42  and  _43
REMARK   21  A    between atoms: _52  and  _54
REMARK   22  A    between atoms: _54  and  _55
REMARK   23  A    between atoms: _54  and  _57
REMARK   24  A    between atoms: _57  and  _58
REMARK   25  A    between atoms: _61  and  _63
REMARK   26  A    between atoms: _63  and  _64
REMARK   27  A    between atoms: _63  and  _66
REMARK   28  A    between atoms: _66  and  _67
REMARK   29  A    between atoms: _72  and  _74
REMARK   30  A    between atoms: _74  and  _75
REMARK   31  A    between atoms: _74  and  _77
REMARK   32  A    between atoms: _77  and  _78
REMARK   33  A    between atoms: _81  and  _83
REMARK   34  A    between atoms: _83  and  _84
REMARK   35  A    between atoms: _83  and  _86
REMARK   36  A    between atoms: _86  and  _87
REMARK   37  A    between atoms: _92  and  _94
REMARK   38  A    between atoms: _94  and  _95
REMARK   39  A    between atoms: _94  and  _97
REMARK   40  A    between atoms: _97  and  _98
REMARK   41  A    between atoms: _98  and  _99
REMARK   42  A    between atoms: _99  and  _100
REMARK   43  A    between atoms: _109  and  _111
REMARK   44  A    between atoms: _111  and  _112
REMARK   45  A    between atoms: _111  and  _114
REMARK   46  A    between atoms: _114  and  _115
REMARK   47  A    between atoms: _120  and  _122
REMARK   48  A    between atoms: _122  and  _123
REMARK   49  A    between atoms: _125  and  _127
REMARK   50  A    between atoms: _127  and  _128
REMARK   51  A    between atoms: _127  and  _130
REMARK   52  A    between atoms: _130  and  _131
REMARK   53  A    between atoms: _134  and  _136
REMARK   54  A    between atoms: _136  and  _137
REMARK   55  A    between atoms: _136  and  _139
REMARK   56  A    between atoms: _141  and  _143
REMARK   57  A    between atoms: _143  and  _144
REMARK   58  A    between atoms: _143  and  _146
REMARK   59  A    between atoms: _146  and  _147
REMARK   60  A    between atoms: _147  and  _148
REMARK   61  A    between atoms: _148  and  _149
REMARK   62  A    between atoms: _158  and  _160
REMARK   63  A    between atoms: _160  and  _161
REMARK   64  A    between atoms: _160  and  _163
REMARK   65  A    between atoms: _163  and  _164
REMARK   66  A    between atoms: _164  and  _165
REMARK   67  A    between atoms: _167  and  _169
REMARK   68  A    between atoms: _169  and  _170
REMARK   69  A    between atoms: _169  and  _172
REMARK   70  A    between atoms: _172  and  _173
REMARK   71  A    between atoms: _176  and  _178
REMARK   72  A    between atoms: _178  and  _179
REMARK   73  A    between atoms: _178  and  _181
REMARK   74  A    between atoms: _181  and  _182
REMARK   75  A    between atoms: _185  and  _187
REMARK   76  A    between atoms: _187  and  _188
REMARK   77  A    between atoms: _190  and  _192
REMARK   78  A    between atoms: _192  and  _193
REMARK   79  A    between atoms: _192  and  _195
REMARK   80  A    between atoms: _195  and  _196
REMARK   81  A    between atoms: _196  and  _197
REMARK   82  A    between atoms: _200  and  _202
REMARK   83  A    between atoms: _202  and  _203
REMARK   84  A    between atoms: _202  and  _205
REMARK   85  A    between atoms: _208  and  _210
REMARK   86  A    between atoms: _210  and  _211
REMARK   87  A    between atoms: _210  and  _213
REMARK   88  A    between atoms: _213  and  _214
REMARK   89  A    between atoms: _217  and  _219
REMARK   90  A    between atoms: _219  and  _220
REMARK   91  A    between atoms: _219  and  _222
REMARK   92  A    between atoms: _222  and  _223
REMARK   93  A    between atoms: _226  and  _228
REMARK   94  A    between atoms: _228  and  _229
REMARK   95  A    between atoms: _232  and  _234
REMARK   96  A    between atoms: _234  and  _235
REMARK   97  A    between atoms: _234  and  _237
REMARK   98  A    between atoms: _240  and  _242
REMARK   99  A    between atoms: _242  and  _243
REMARK  100  A    between atoms: _242  and  _245
REMARK  101  A    between atoms: _245  and  _246
REMARK  102  A    between atoms: _246  and  _247
REMARK  103  A    between atoms: _250  and  _252
REMARK  104  A    between atoms: _252  and  _253
REMARK  105  A    between atoms: _256  and  _258
REMARK  106  A    between atoms: _258  and  _259
REMARK  107  A    between atoms: _262  and  _264
REMARK  108  A    between atoms: _264  and  _265
REMARK  109  A    between atoms: _264  and  _267
REMARK  110  A    between atoms: _267  and  _268
REMARK  111  A    between atoms: _270  and  _272
REMARK  112  A    between atoms: _272  and  _273
REMARK  113  A    between atoms: _272  and  _275
REMARK  114  A    between atoms: _275  and  _276
REMARK  115  A    between atoms: _286  and  _288
REMARK  116  A    between atoms: _288  and  _289
REMARK  117  A    between atoms: _292  and  _293
REMARK  118  A    between atoms: _298  and  _300
REMARK  119  A    between atoms: _300  and  _301
REMARK  120  A    between atoms: _300  and  _303
REMARK  121  A    between atoms: _303  and  _304
REMARK  122  A    between atoms: _304  and  _305
REMARK  123  A    between atoms: _308  and  _310
REMARK  124  A    between atoms: _310  and  _311
REMARK  125  A    between atoms: _310  and  _313
REMARK  126  A    between atoms: _313  and  _314
REMARK  127  A    between atoms: _317  and  _319
REMARK  128  A    between atoms: _319  and  _320
REMARK  129  A    between atoms: _319  and  _322
REMARK  130  A    between atoms: _322  and  _323
REMARK  131  A    between atoms: _326  and  _328
REMARK  132  A    between atoms: _328  and  _329
REMARK  133  A    between atoms: _328  and  _331
REMARK  134  A    between atoms: _331  and  _332
REMARK  135  A    between atoms: _335  and  _337
REMARK  136  A    between atoms: _337  and  _338
REMARK  137  A    between atoms: _337  and  _340
REMARK  138  A    between atoms: _343  and  _345
REMARK  139  A    between atoms: _345  and  _346
REMARK  140  A    between atoms: _345  and  _348
REMARK  141  A    between atoms: _348  and  _349
REMARK  142  A    between atoms: _352  and  _354
REMARK  143  A    between atoms: _354  and  _355
REMARK  144  A    between atoms: _358  and  _359
REMARK  145  A    between atoms: _364  and  _366
REMARK  146  A    between atoms: _366  and  _367
REMARK  147  A    between atoms: _370  and  _372
REMARK  148  A    between atoms: _372  and  _373
REMARK  149  A    between atoms: _372  and  _375
REMARK  150  A    between atoms: _375  and  _376
REMARK  151  A    between atoms: _376  and  _377
REMARK  152  A    between atoms: _377  and  _378
REMARK  153  A    between atoms: _387  and  _389
REMARK  154  A    between atoms: _389  and  _390
REMARK  155  A    between atoms: _389  and  _392
REMARK  156  A    between atoms: _392  and  _393
REMARK  157  A    between atoms: _396  and  _398
REMARK  158  A    between atoms: _398  and  _399
REMARK  159  A    between atoms: _402  and  _404
REMARK  160  A    between atoms: _404  and  _405
REMARK  161  A    between atoms: _404  and  _407
REMARK  162  A    between atoms: _407  and  _408
REMARK  163  A    between atoms: _408  and  _409
REMARK  164  A    between atoms: _412  and  _414
REMARK  165  A    between atoms: _414  and  _415
REMARK  166  A    between atoms: _414  and  _417
REMARK  167  A    between atoms: _417  and  _418
REMARK  168  A    between atoms: _428  and  _430
REMARK  169  A    between atoms: _430  and  _431
REMARK  170  A    between atoms: _434  and  _436
REMARK  171  A    between atoms: _436  and  _437
REMARK  172  A    between atoms: _436  and  _439
REMARK  173  A    between atoms: _439  and  _440
REMARK  174  A    between atoms: _442  and  _444
REMARK  175  A    between atoms: _444  and  _445
REMARK  176  A    between atoms: _447  and  _449
REMARK  177  A    between atoms: _449  and  _450
REMARK  178  A    between atoms: _449  and  _452
REMARK  179  A    between atoms: _452  and  _453
REMARK  180  A    between atoms: _458  and  _460
REMARK  181  A    between atoms: _460  and  _461
REMARK  182  A    between atoms: _463  and  _465
REMARK  183  A    between atoms: _465  and  _466
REMARK  184  A    between atoms: _465  and  _468
REMARK  185  A    between atoms: _468  and  _469
REMARK  186  A    between atoms: _469  and  _471
REMARK  187  A    between atoms: _471  and  CA_629
REMARK  188  A    between atoms: _472  and  _474
REMARK  189  A    between atoms: _474  and  _475
REMARK  190  A    between atoms: _474  and  _477
REMARK  191  A    between atoms: _477  and  _478
REMARK  192  A    between atoms: _480  and  _482
REMARK  193  A    between atoms: _482  and  _483
REMARK  194  A    between atoms: _482  and  _485
REMARK  195  A    between atoms: _487  and  _489
REMARK  196  A    between atoms: _489  and  _490
REMARK  197  A    between atoms: _489  and  _492
REMARK  198  A    between atoms: _494  and  _496
REMARK  199  A    between atoms: _496  and  _497
REMARK  200  A    between atoms: _496  and  _499
REMARK  201  A    between atoms: _499  and  _500
REMARK  202  A    between atoms: _503  and  _505
REMARK  203  A    between atoms: _505  and  _506
REMARK  204  A    between atoms: _508  and  _510
REMARK  205  A    between atoms: _510  and  _511
REMARK  206  A    between atoms: _510  and  _513
REMARK  207  A    between atoms: _513  and  _514
REMARK  208  A    between atoms: _519  and  _520
REMARK  209  A    between atoms: _522  and  _524
REMARK  210  A    between atoms: _524  and  _525
REMARK  211  A    between atoms: _524  and  _527
REMARK  212  A    between atoms: _527  and  _528
REMARK  213  A    between atoms: _531  and  _533
REMARK  214  A    between atoms: _533  and  _534
REMARK  215  A    between atoms: _533  and  _536
REMARK  216  A    between atoms: _536  and  _537
REMARK  217  A    between atoms: _542  and  _544
REMARK  218  A    between atoms: _544  and  _545
REMARK  219  A    between atoms: _544  and  _547
REMARK  220  A    between atoms: _547  and  _548
REMARK  221  A    between atoms: _551  and  _553
REMARK  222  A    between atoms: _553  and  _554
REMARK  223  A    between atoms: _553  and  _556
REMARK  224  A    between atoms: _556  and  _557
REMARK  225  A    between atoms: _559  and  _561
REMARK  226  A    between atoms: _561  and  _562
REMARK  227  A    between atoms: _561  and  _564
REMARK  228  A    between atoms: _564  and  _565
REMARK  229  A    between atoms: _568  and  _570
REMARK  230  A    between atoms: _570  and  _571
REMARK  231  A    between atoms: _570  and  _573
REMARK  232  A    between atoms: _573  and  _574
REMARK  233  A    between atoms: _574  and  _575
REMARK  234  A    between atoms: _578  and  _580
REMARK  235  A    between atoms: _580  and  _581
REMARK  236  A    between atoms: _580  and  _583
REMARK  237  A    between atoms: _583  and  _584
REMARK  238  A    between atoms: _587  and  _589
REMARK  239  A    between atoms: _589  and  _590
REMARK  240  A    between atoms: _592  and  _594
REMARK  241  A    between atoms: _594  and  _595
REMARK  242  A    between atoms: _594  and  _597
REMARK  243  A    between atoms: _597  and  _598
REMARK  244  A    between atoms: _601  and  _603
REMARK  245  A    between atoms: _603  and  _604
REMARK  246  A    between atoms: _603  and  _606
REMARK  247  A    between atoms: _606  and  _607
REMARK  248  A    between atoms: _609  and  _611
REMARK  249  A    between atoms: _611  and  _612
REMARK  250  A    between atoms: _615  and  _617
REMARK  251  A    between atoms: _617  and  _618
REMARK  252  A    between atoms: _617  and  _620
REMARK  253  A    between atoms: _620  and  _621
REMARK  254  A    between atoms: _623  and  _625
REMARK  255  A    between atoms: _625  and  _626
REMARK                            x       y       z     vdW  Elec       q    Type
REMARK                         _______ _______ _______ _____ _____    ______ ____
ROOT
ATOM      1  O   HOH     1      25.745  31.730 -12.706  0.00  0.00    +0.000 OA
ENDROOT
TORSDOF 0
REMARK  Name = ../refined-set-2016/4ryd/4ryd_pocket.pdb
REMARK  255 active torsions:
REMARK  status: ('A' for Active; 'I' for Inactive)
REMARK    1  A    between atoms: _1  and  _3
REMARK    2  A    between atoms: _3  and  _4
REMARK    3  A    between atoms: _3  and  _6
REMARK    4  A    between atoms: _6  and  _7
REMARK    5  A    between atoms: _10  and  _12
REMARK    6  A    between atoms: _12  and  _13
REMARK    7  A    between atoms: _12  and  _15
REMARK    8  A    between atoms: _15  and  _16
REMARK    9  A    between atoms: _19  and  _21
REMARK   10  A    between atoms: _21  and  _22
REMARK   11  A    between atoms: _24  and  _26
REMARK   12  A    between atoms: _26  and  _27
REMARK   13  A    between atoms: _26  and  _29
REMARK   14  A    between atoms: _29  and  _30
REMARK   15  A    between atoms: _35  and  _37
REMARK   16  A    between atoms: _37  and  _38
REMARK   17  A    between atoms: _37  and  _40
REMARK   18  A    between atoms: _40  and  _41
REMARK   19  A    between atoms: _41  and  _42
REMARK   20  A    between atoms: _42  and  _43
REMARK   21  A    between atoms: _52  and  _54
REMARK   22  A    between atoms: _54  and  _55
REMARK   23  A    between atoms: _54  and  _57
REMARK   24  A    between atoms: _57  and  _58
REMARK   25  A    between atoms: _61  and  _63
REMARK   26  A    between atoms: _63  and  _64
REMARK   27  A    between atoms: _63  and  _66
REMARK   28  A    between atoms: _66  and  _67
REMARK   29  A    between atoms: _72  and  _74
REMARK   30  A    between atoms: _74  and  _75
REMARK   31  A    between atoms: _74  and  _77
REMARK   32  A    between atoms: _77  and  _78
REMARK   33  A    between atoms: _81  and  _83
REMARK   34  A    between atoms: _83  and  _84
REMARK   35  A    between atoms: _83  and  _86
REMARK   36  A    between atoms: _86  and  _87
REMARK   37  A    between atoms: _92  and  _94
REMARK   38  A    between atoms: _94  and  _95
REMARK   39  A    between atoms: _94  and  _97
REMARK   40  A    between atoms: _97  and  _98
REMARK   41  A    between atoms: _98  and  _99
REMARK   42  A    between atoms: _99  and  _100
REMARK   43  A    between atoms: _109  and  _111
REMARK   44  A    between atoms: _111  and  _112
REMARK   45  A    between atoms: _111  and  _114
REMARK   46  A    between atoms: _114  and  _115
REMARK   47  A    between atoms: _120  and  _122
REMARK   48  A    between atoms: _122  and  _123
REMARK   49  A    between atoms: _125  and  _127
REMARK   50  A    between atoms: _127  and  _128
REMARK   51  A    between atoms: _127  and  _130
REMARK   52  A    between atoms: _130  and  _131
REMARK   53  A    between atoms: _134  and  _136
REMARK   54  A    between atoms: _136  and  _137
REMARK   55  A    between atoms: _136  and  _139
REMARK   56  A    between atoms: _141  and  _143
REMARK   57  A    between atoms: _143  and  _144
REMARK   58  A    between atoms: _143  and  _146
REMARK   59  A    between atoms: _146  and  _147
REMARK   60  A    between atoms: _147  and  _148
REMARK   61  A    between atoms: _148  and  _149
REMARK   62  A    between atoms: _158  and  _160
REMARK   63  A    between atoms: _160  and  _161
REMARK   64  A    between atoms: _160  and  _163
REMARK   65  A    between atoms: _163  and  _164
REMARK   66  A    between atoms: _164  and  _165
REMARK   67  A    between atoms: _167  and  _169
REMARK   68  A    between atoms: _169  and  _170
REMARK   69  A    between atoms: _169  and  _172
REMARK   70  A    between atoms: _172  and  _173
REMARK   71  A    between atoms: _176  and  _178
REMARK   72  A    between atoms: _178  and  _179
REMARK   73  A    between atoms: _178  and  _181
REMARK   74  A    between atoms: _181  and  _182
REMARK   75  A    between atoms: _185  and  _187
REMARK   76  A    between atoms: _187  and  _188
REMARK   77  A    between atoms: _190  and  _192
REMARK   78  A    between atoms: _192  and  _193
REMARK   79  A    between atoms: _192  and  _195
REMARK   80  A    between atoms: _195  and  _196
REMARK   81  A    between atoms: _196  and  _197
REMARK   82  A    between atoms: _200  and  _202
REMARK   83  A    between atoms: _202  and  _203
REMARK   84  A    between atoms: _202  and  _205
REMARK   85  A    between atoms: _208  and  _210
REMARK   86  A    between atoms: _210  and  _211
REMARK   87  A    between atoms: _210  and  _213
REMARK   88  A    between atoms: _213  and  _214
REMARK   89  A    between atoms: _217  and  _219
REMARK   90  A    between atoms: _219  and  _220
REMARK   91  A    between atoms: _219  and  _222
REMARK   92  A    between atoms: _222  and  _223
REMARK   93  A    between atoms: _226  and  _228
REMARK   94  A    between atoms: _228  and  _229
REMARK   95  A    between atoms: _232  and  _234
REMARK   96  A    between atoms: _234  and  _235
REMARK   97  A    between atoms: _234  and  _237
REMARK   98  A    between atoms: _240  and  _242
REMARK   99  A    between atoms: _242  and  _243
REMARK  100  A    between atoms: _242  and  _245
REMARK  101  A    between atoms: _245  and  _246
REMARK  102  A    between atoms: _246  and  _247
REMARK  103  A    between atoms: _250  and  _252
REMARK  104  A    between atoms: _252  and  _253
REMARK  105  A    between atoms: _256  and  _258
REMARK  106  A    between atoms: _258  and  _259
REMARK  107  A    between atoms: _262  and  _264
REMARK  108  A    between atoms: _264  and  _265
REMARK  109  A    between atoms: _264  and  _267
REMARK  110  A    between atoms: _267  and  _268
REMARK  111  A    between atoms: _270  and  _272
REMARK  112  A    between atoms: _272  and  _273
REMARK  113  A    between atoms: _272  and  _275
REMARK  114  A    between atoms: _275  and  _276
REMARK  115  A    between atoms: _286  and  _288
REMARK  116  A    between atoms: _288  and  _289
REMARK  117  A    between atoms: _292  and  _293
REMARK  118  A    between atoms: _298  and  _300
REMARK  119  A    between atoms: _300  and  _301
REMARK  120  A    between atoms: _300  and  _303
REMARK  121  A    between atoms: _303  and  _304
REMARK  122  A    between atoms: _304  and  _305
REMARK  123  A    between atoms: _308  and  _310
REMARK  124  A    between atoms: _310  and  _311
REMARK  125  A    between atoms: _310  and  _313
REMARK  126  A    between atoms: _313  and  _314
REMARK  127  A    between atoms: _317  and  _319
REMARK  128  A    between atoms: _319  and  _320
REMARK  129  A    between atoms: _319  and  _322
REMARK  130  A    between atoms: _322  and  _323
REMARK  131  A    between atoms: _326  and  _328
REMARK  132  A    between atoms: _328  and  _329
REMARK  133  A    between atoms: _328  and  _331
REMARK  134  A    between atoms: _331  and  _332
REMARK  135  A    between atoms: _335  and  _337
REMARK  136  A    between atoms: _337  and  _338
REMARK  137  A    between atoms: _337  and  _340
REMARK  138  A    between atoms: _343  and  _345
REMARK  139  A    between atoms: _345  and  _346
REMARK  140  A    between atoms: _345  and  _348
REMARK  141  A    between atoms: _348  and  _349
REMARK  142  A    between atoms: _352  and  _354
REMARK  143  A    between atoms: _354  and  _355
REMARK  144  A    between atoms: _358  and  _359
REMARK  145  A    between atoms: _364  and  _366
REMARK  146  A    between atoms: _366  and  _367
REMARK  147  A    between atoms: _370  and  _372
REMARK  148  A    between atoms: _372  and  _373
REMARK  149  A    between atoms: _372  and  _375
REMARK  150  A    between atoms: _375  and  _376
REMARK  151  A    between atoms: _376  and  _377
REMARK  152  A    between atoms: _377  and  _378
REMARK  153  A    between atoms: _387  and  _389
REMARK  154  A    between atoms: _389  and  _390
REMARK  155  A    between atoms: _389  and  _392
REMARK  156  A    between atoms: _392  and  _393
REMARK  157  A    between atoms: _396  and  _398
REMARK  158  A    between atoms: _398  and  _399
REMARK  159  A    between atoms: _402  and  _404
REMARK  160  A    between atoms: _404  and  _405
REMARK  161  A    between atoms: _404  and  _407
REMARK  162  A    between atoms: _407  and  _408
REMARK  163  A    between atoms: _408  and  _409
REMARK  164  A    between atoms: _412  and  _414
REMARK  165  A    between atoms: _414  and  _415
REMARK  166  A    between atoms: _414  and  _417
REMARK  167  A    between atoms: _417  and  _418
REMARK  168  A    between atoms: _428  and  _430
REMARK  169  A    between atoms: _430  and  _431
REMARK  170  A    between atoms: _434  and  _436
REMARK  171  A    between atoms: _436  and  _437
REMARK  172  A    between atoms: _436  and  _439
REMARK  173  A    between atoms: _439  and  _440
REMARK  174  A    between atoms: _442  and  _444
REMARK  175  A    between atoms: _444  and  _445
REMARK  176  A    between atoms: _447  and  _449
REMARK  177  A    between atoms: _449  and  _450
REMARK  178  A    between atoms: _449  and  _452
REMARK  179  A    between atoms: _452  and  _453
REMARK  180  A    between atoms: _458  and  _460
REMARK  181  A    between atoms: _460  and  _461
REMARK  182  A    between atoms: _463  and  _465
REMARK  183  A    between atoms: _465  and  _466
REMARK  184  A    between atoms: _465  and  _468
REMARK  185  A    between atoms: _468  and  _469
REMARK  186  A    between atoms: _469  and  _471
REMARK  187  A    between atoms: _471  and  CA_629
REMARK  188  A    between atoms: _472  and  _474
REMARK  189  A    between atoms: _474  and  _475
REMARK  190  A    between atoms: _474  and  _477
REMARK  191  A    between atoms: _477  and  _478
REMARK  192  A    between atoms: _480  and  _482
REMARK  193  A    between atoms: _482  and  _483
REMARK  194  A    between atoms: _482  and  _485
REMARK  195  A    between atoms: _487  and  _489
REMARK  196  A    between atoms: _489  and  _490
REMARK  197  A    between atoms: _489  and  _492
REMARK  198  A    between atoms: _494  and  _496
REMARK  199  A    between atoms: _496  and  _497
REMARK  200  A    between atoms: _496  and  _499
REMARK  201  A    between atoms: _499  and  _500
REMARK  202  A    between atoms: _503  and  _505
REMARK  203  A    between atoms: _505  and  _506
REMARK  204  A    between atoms: _508  and  _510
REMARK  205  A    between atoms: _510  and  _511
REMARK  206  A    between atoms: _510  and  _513
REMARK  207  A    between atoms: _513  and  _514
REMARK  208  A    between atoms: _519  and  _520
REMARK  209  A    between atoms: _522  and  _524
REMARK  210  A    between atoms: _524  and  _525
REMARK  211  A    between atoms: _524  and  _527
REMARK  212  A    between atoms: _527  and  _528
REMARK  213  A    between atoms: _531  and  _533
REMARK  214  A    between atoms: _533  and  _534
REMARK  215  A    between atoms: _533  and  _536
REMARK  216  A    between atoms: _536  and  _537
REMARK  217  A    between atoms: _542  and  _544
REMARK  218  A    between atoms: _544  and  _545
REMARK  219  A    between atoms: _544  and  _547
REMARK  220  A    between atoms: _547  and  _548
REMARK  221  A    between atoms: _551  and  _553
REMARK  222  A    between atoms: _553  and  _554
REMARK  223  A    between atoms: _553  and  _556
REMARK  224  A    between atoms: _556  and  _557
REMARK  225  A    between atoms: _559  and  _561
REMARK  226  A    between atoms: _561  and  _562
REMARK  227  A    between atoms: _561  and  _564
REMARK  228  A    between atoms: _564  and  _565
REMARK  229  A    between atoms: _568  and  _570
REMARK  230  A    between atoms: _570  and  _571
REMARK  231  A    between atoms: _570  and  _573
REMARK  232  A    between atoms: _573  and  _574
REMARK  233  A    between atoms: _574  and  _575
REMARK  234  A    between atoms: _578  and  _580
REMARK  235  A    between atoms: _580  and  _581
REMARK  236  A    between atoms: _580  and  _583
REMARK  237  A    between atoms: _583  and  _584
REMARK  238  A    between atoms: _587  and  _589
REMARK  239  A    between atoms: _589  and  _590
REMARK  240  A    between atoms: _592  and  _594
REMARK  241  A    between atoms: _594  and  _595
REMARK  242  A    between atoms: _594  and  _597
REMARK  243  A    between atoms: _597  and  _598
REMARK  244  A    between atoms: _601  and  _603
REMARK  245  A    between atoms: _603  and  _604
REMARK  246  A    between atoms: _603  and  _606
REMARK  247  A    between atoms: _606  and  _607
REMARK  248  A    between atoms: _609  and  _611
REMARK  249  A    between atoms: _611  and  _612
REMARK  250  A    between atoms: _615  and  _617
REMARK  251  A    between atoms: _617  and  _618
REMARK  252  A    between atoms: _617  and  _620
REMARK  253  A    between atoms: _620  and  _621
REMARK  254  A    between atoms: _623  and  _625
REMARK  255  A    between atoms: _625  and  _626
REMARK                            x       y       z     vdW  Elec       q    Type
REMARK                         _______ _______ _______ _____ _____    ______ ____
ROOT
ATOM      1  O   HOH     1      37.386  19.414  -5.121  0.00  0.00    +0.000 OA
ENDROOT
TORSDOF 0
REMARK  Name = ../refined-set-2016/4ryd/4ryd_pocket.pdb
REMARK  255 active torsions:
REMARK  status: ('A' for Active; 'I' for Inactive)
REMARK    1  A    between atoms: _1  and  _3
REMARK    2  A    between atoms: _3  and  _4
REMARK    3  A    between atoms: _3  and  _6
REMARK    4  A    between atoms: _6  and  _7
REMARK    5  A    between atoms: _10  and  _12
REMARK    6  A    between atoms: _12  and  _13
REMARK    7  A    between atoms: _12  and  _15
REMARK    8  A    between atoms: _15  and  _16
REMARK    9  A    between atoms: _19  and  _21
REMARK   10  A    between atoms: _21  and  _22
REMARK   11  A    between atoms: _24  and  _26
REMARK   12  A    between atoms: _26  and  _27
REMARK   13  A    between atoms: _26  and  _29
REMARK   14  A    between atoms: _29  and  _30
REMARK   15  A    between atoms: _35  and  _37
REMARK   16  A    between atoms: _37  and  _38
REMARK   17  A    between atoms: _37  and  _40
REMARK   18  A    between atoms: _40  and  _41
REMARK   19  A    between atoms: _41  and  _42
REMARK   20  A    between atoms: _42  and  _43
REMARK   21  A    between atoms: _52  and  _54
REMARK   22  A    between atoms: _54  and  _55
REMARK   23  A    between atoms: _54  and  _57
REMARK   24  A    between atoms: _57  and  _58
REMARK   25  A    between atoms: _61  and  _63
REMARK   26  A    between atoms: _63  and  _64
REMARK   27  A    between atoms: _63  and  _66
REMARK   28  A    between atoms: _66  and  _67
REMARK   29  A    between atoms: _72  and  _74
REMARK   30  A    between atoms: _74  and  _75
REMARK   31  A    between atoms: _74  and  _77
REMARK   32  A    between atoms: _77  and  _78
REMARK   33  A    between atoms: _81  and  _83
REMARK   34  A    between atoms: _83  and  _84
REMARK   35  A    between atoms: _83  and  _86
REMARK   36  A    between atoms: _86  and  _87
REMARK   37  A    between atoms: _92  and  _94
REMARK   38  A    between atoms: _94  and  _95
REMARK   39  A    between atoms: _94  and  _97
REMARK   40  A    between atoms: _97  and  _98
REMARK   41  A    between atoms: _98  and  _99
REMARK   42  A    between atoms: _99  and  _100
REMARK   43  A    between atoms: _109  and  _111
REMARK   44  A    between atoms: _111  and  _112
REMARK   45  A    between atoms: _111  and  _114
REMARK   46  A    between atoms: _114  and  _115
REMARK   47  A    between atoms: _120  and  _122
REMARK   48  A    between atoms: _122  and  _123
REMARK   49  A    between atoms: _125  and  _127
REMARK   50  A    between atoms: _127  and  _128
REMARK   51  A    between atoms: _127  and  _130
REMARK   52  A    between atoms: _130  and  _131
REMARK   53  A    between atoms: _134  and  _136
REMARK   54  A    between atoms: _136  and  _137
REMARK   55  A    between atoms: _136  and  _139
REMARK   56  A    between atoms: _141  and  _143
REMARK   57  A    between atoms: _143  and  _144
REMARK   58  A    between atoms: _143  and  _146
REMARK   59  A    between atoms: _146  and  _147
REMARK   60  A    between atoms: _147  and  _148
REMARK   61  A    between atoms: _148  and  _149
REMARK   62  A    between atoms: _158  and  _160
REMARK   63  A    between atoms: _160  and  _161
REMARK   64  A    between atoms: _160  and  _163
REMARK   65  A    between atoms: _163  and  _164
REMARK   66  A    between atoms: _164  and  _165
REMARK   67  A    between atoms: _167  and  _169
REMARK   68  A    between atoms: _169  and  _170
REMARK   69  A    between atoms: _169  and  _172
REMARK   70  A    between atoms: _172  and  _173
REMARK   71  A    between atoms: _176  and  _178
REMARK   72  A    between atoms: _178  and  _179
REMARK   73  A    between atoms: _178  and  _181
REMARK   74  A    between atoms: _181  and  _182
REMARK   75  A    between atoms: _185  and  _187
REMARK   76  A    between atoms: _187  and  _188
REMARK   77  A    between atoms: _190  and  _192
REMARK   78  A    between atoms: _192  and  _193
REMARK   79  A    between atoms: _192  and  _195
REMARK   80  A    between atoms: _195  and  _196
REMARK   81  A    between atoms: _196  and  _197
REMARK   82  A    between atoms: _200  and  _202
REMARK   83  A    between atoms: _202  and  _203
REMARK   84  A    between atoms: _202  and  _205
REMARK   85  A    between atoms: _208  and  _210
REMARK   86  A    between atoms: _210  and  _211
REMARK   87  A    between atoms: _210  and  _213
REMARK   88  A    between atoms: _213  and  _214
REMARK   89  A    between atoms: _217  and  _219
REMARK   90  A    between atoms: _219  and  _220
REMARK   91  A    between atoms: _219  and  _222
REMARK   92  A    between atoms: _222  and  _223
REMARK   93  A    between atoms: _226  and  _228
REMARK   94  A    between atoms: _228  and  _229
REMARK   95  A    between atoms: _232  and  _234
REMARK   96  A    between atoms: _234  and  _235
REMARK   97  A    between atoms: _234  and  _237
REMARK   98  A    between atoms: _240  and  _242
REMARK   99  A    between atoms: _242  and  _243
REMARK  100  A    between atoms: _242  and  _245
REMARK  101  A    between atoms: _245  and  _246
REMARK  102  A    between atoms: _246  and  _247
REMARK  103  A    between atoms: _250  and  _252
REMARK  104  A    between atoms: _252  and  _253
REMARK  105  A    between atoms: _256  and  _258
REMARK  106  A    between atoms: _258  and  _259
REMARK  107  A    between atoms: _262  and  _264
REMARK  108  A    between atoms: _264  and  _265
REMARK  109  A    between atoms: _264  and  _267
REMARK  110  A    between atoms: _267  and  _268
REMARK  111  A    between atoms: _270  and  _272
REMARK  112  A    between atoms: _272  and  _273
REMARK  113  A    between atoms: _272  and  _275
REMARK  114  A    between atoms: _275  and  _276
REMARK  115  A    between atoms: _286  and  _288
REMARK  116  A    between atoms: _288  and  _289
REMARK  117  A    between atoms: _292  and  _293
REMARK  118  A    between atoms: _298  and  _300
REMARK  119  A    between atoms: _300  and  _301
REMARK  120  A    between atoms: _300  and  _303
REMARK  121  A    between atoms: _303  and  _304
REMARK  122  A    between atoms: _304  and  _305
REMARK  123  A    between atoms: _308  and  _310
REMARK  124  A    between atoms: _310  and  _311
REMARK  125  A    between atoms: _310  and  _313
REMARK  126  A    between atoms: _313  and  _314
REMARK  127  A    between atoms: _317  and  _319
REMARK  128  A    between atoms: _319  and  _320
REMARK  129  A    between atoms: _319  and  _322
REMARK  130  A    between atoms: _322  and  _323
REMARK  131  A    between atoms: _326  and  _328
REMARK  132  A    between atoms: _328  and  _329
REMARK  133  A    between atoms: _328  and  _331
REMARK  134  A    between atoms: _331  and  _332
REMARK  135  A    between atoms: _335  and  _337
REMARK  136  A    between atoms: _337  and  _338
REMARK  137  A    between atoms: _337  and  _340
REMARK  138  A    between atoms: _343  and  _345
REMARK  139  A    between atoms: _345  and  _346
REMARK  140  A    between atoms: _345  and  _348
REMARK  141  A    between atoms: _348  and  _349
REMARK  142  A    between atoms: _352  and  _354
REMARK  143  A    between atoms: _354  and  _355
REMARK  144  A    between atoms: _358  and  _359
REMARK  145  A    between atoms: _364  and  _366
REMARK  146  A    between atoms: _366  and  _367
REMARK  147  A    between atoms: _370  and  _372
REMARK  148  A    between atoms: _372  and  _373
REMARK  149  A    between atoms: _372  and  _375
REMARK  150  A    between atoms: _375  and  _376
REMARK  151  A    between atoms: _376  and  _377
REMARK  152  A    between atoms: _377  and  _378
REMARK  153  A    between atoms: _387  and  _389
REMARK  154  A    between atoms: _389  and  _390
REMARK  155  A    between atoms: _389  and  _392
REMARK  156  A    between atoms: _392  and  _393
REMARK  157  A    between atoms: _396  and  _398
REMARK  158  A    between atoms: _398  and  _399
REMARK  159  A    between atoms: _402  and  _404
REMARK  160  A    between atoms: _404  and  _405
REMARK  161  A    between atoms: _404  and  _407
REMARK  162  A    between atoms: _407  and  _408
REMARK  163  A    between atoms: _408  and  _409
REMARK  164  A    between atoms: _412  and  _414
REMARK  165  A    between atoms: _414  and  _415
REMARK  166  A    between atoms: _414  and  _417
REMARK  167  A    between atoms: _417  and  _418
REMARK  168  A    between atoms: _428  and  _430
REMARK  169  A    between atoms: _430  and  _431
REMARK  170  A    between atoms: _434  and  _436
REMARK  171  A    between atoms: _436  and  _437
REMARK  172  A    between atoms: _436  and  _439
REMARK  173  A    between atoms: _439  and  _440
REMARK  174  A    between atoms: _442  and  _444
REMARK  175  A    between atoms: _444  and  _445
REMARK  176  A    between atoms: _447  and  _449
REMARK  177  A    between atoms: _449  and  _450
REMARK  178  A    between atoms: _449  and  _452
REMARK  179  A    between atoms: _452  and  _453
REMARK  180  A    between atoms: _458  and  _460
REMARK  181  A    between atoms: _460  and  _461
REMARK  182  A    between atoms: _463  and  _465
REMARK  183  A    between atoms: _465  and  _466
REMARK  184  A    between atoms: _465  and  _468
REMARK  185  A    between atoms: _468  and  _469
REMARK  186  A    between atoms: _469  and  _471
REMARK  187  A    between atoms: _471  and  CA_629
REMARK  188  A    between atoms: _472  and  _474
REMARK  189  A    between atoms: _474  and  _475
REMARK  190  A    between atoms: _474  and  _477
REMARK  191  A    between atoms: _477  and  _478
REMARK  192  A    between atoms: _480  and  _482
REMARK  193  A    between atoms: _482  and  _483
REMARK  194  A    between atoms: _482  and  _485
REMARK  195  A    between atoms: _487  and  _489
REMARK  196  A    between atoms: _489  and  _490
REMARK  197  A    between atoms: _489  and  _492
REMARK  198  A    between atoms: _494  and  _496
REMARK  199  A    between atoms: _496  and  _497
REMARK  200  A    between atoms: _496  and  _499
REMARK  201  A    between atoms: _499  and  _500
REMARK  202  A    between atoms: _503  and  _505
REMARK  203  A    between atoms: _505  and  _506
REMARK  204  A    between atoms: _508  and  _510
REMARK  205  A    between atoms: _510  and  _511
REMARK  206  A    between atoms: _510  and  _513
REMARK  207  A    between atoms: _513  and  _514
REMARK  208  A    between atoms: _519  and  _520
REMARK  209  A    between atoms: _522  and  _524
REMARK  210  A    between atoms: _524  and  _525
REMARK  211  A    between atoms: _524  and  _527
REMARK  212  A    between atoms: _527  and  _528
REMARK  213  A    between atoms: _531  and  _533
REMARK  214  A    between atoms: _533  and  _534
REMARK  215  A    between atoms: _533  and  _536
REMARK  216  A    between atoms: _536  and  _537
REMARK  217  A    between atoms: _542  and  _544
REMARK  218  A    between atoms: _544  and  _545
REMARK  219  A    between atoms: _544  and  _547
REMARK  220  A    between atoms: _547  and  _548
REMARK  221  A    between atoms: _551  and  _553
REMARK  222  A    between atoms: _553  and  _554
REMARK  223  A    between atoms: _553  and  _556
REMARK  224  A    between atoms: _556  and  _557
REMARK  225  A    between atoms: _559  and  _561
REMARK  226  A    between atoms: _561  and  _562
REMARK  227  A    between atoms: _561  and  _564
REMARK  228  A    between atoms: _564  and  _565
REMARK  229  A    between atoms: _568  and  _570
REMARK  230  A    between atoms: _570  and  _571
REMARK  231  A    between atoms: _570  and  _573
REMARK  232  A    between atoms: _573  and  _574
REMARK  233  A    between atoms: _574  and  _575
REMARK  234  A    between atoms: _578  and  _580
REMARK  235  A    between atoms: _580  and  _581
REMARK  236  A    between atoms: _580  and  _583
REMARK  237  A    between atoms: _583  and  _584
REMARK  238  A    between atoms: _587  and  _589
REMARK  239  A    between atoms: _589  and  _590
REMARK  240  A    between atoms: _592  and  _594
REMARK  241  A    between atoms: _594  and  _595
REMARK  242  A    between atoms: _594  and  _597
REMARK  243  A    between atoms: _597  and  _598
REMARK  244  A    between atoms: _601  and  _603
REMARK  245  A    between atoms: _603  and  _604
REMARK  246  A    between atoms: _603  and  _606
REMARK  247  A    between atoms: _606  and  _607
REMARK  248  A    between atoms: _609  and  _611
REMARK  249  A    between atoms: _611  and  _612
REMARK  250  A    between atoms: _615  and  _617
REMARK  251  A    between atoms: _617  and  _618
REMARK  252  A    between atoms: _617  and  _620
REMARK  253  A    between atoms: _620  and  _621
REMARK  254  A    between atoms: _623  and  _625
REMARK  255  A    between atoms: _625  and  _626
REMARK                            x       y       z     vdW  Elec       q    Type
REMARK                         _______ _______ _______ _____ _____    ______ ____
ROOT
ATOM      1  O   HOH     1      32.983  20.399  -8.406  0.00  0.00    +0.000 OA
ENDROOT
TORSDOF 0
REMARK  Name = ../refined-set-2016/4ryd/4ryd_pocket.pdb
REMARK  255 active torsions:
REMARK  status: ('A' for Active; 'I' for Inactive)
REMARK    1  A    between atoms: _1  and  _3
REMARK    2  A    between atoms: _3  and  _4
REMARK    3  A    between atoms: _3  and  _6
REMARK    4  A    between atoms: _6  and  _7
REMARK    5  A    between atoms: _10  and  _12
REMARK    6  A    between atoms: _12  and  _13
REMARK    7  A    between atoms: _12  and  _15
REMARK    8  A    between atoms: _15  and  _16
REMARK    9  A    between atoms: _19  and  _21
REMARK   10  A    between atoms: _21  and  _22
REMARK   11  A    between atoms: _24  and  _26
REMARK   12  A    between atoms: _26  and  _27
REMARK   13  A    between atoms: _26  and  _29
REMARK   14  A    between atoms: _29  and  _30
REMARK   15  A    between atoms: _35  and  _37
REMARK   16  A    between atoms: _37  and  _38
REMARK   17  A    between atoms: _37  and  _40
REMARK   18  A    between atoms: _40  and  _41
REMARK   19  A    between atoms: _41  and  _42
REMARK   20  A    between atoms: _42  and  _43
REMARK   21  A    between atoms: _52  and  _54
REMARK   22  A    between atoms: _54  and  _55
REMARK   23  A    between atoms: _54  and  _57
REMARK   24  A    between atoms: _57  and  _58
REMARK   25  A    between atoms: _61  and  _63
REMARK   26  A    between atoms: _63  and  _64
REMARK   27  A    between atoms: _63  and  _66
REMARK   28  A    between atoms: _66  and  _67
REMARK   29  A    between atoms: _72  and  _74
REMARK   30  A    between atoms: _74  and  _75
REMARK   31  A    between atoms: _74  and  _77
REMARK   32  A    between atoms: _77  and  _78
REMARK   33  A    between atoms: _81  and  _83
REMARK   34  A    between atoms: _83  and  _84
REMARK   35  A    between atoms: _83  and  _86
REMARK   36  A    between atoms: _86  and  _87
REMARK   37  A    between atoms: _92  and  _94
REMARK   38  A    between atoms: _94  and  _95
REMARK   39  A    between atoms: _94  and  _97
REMARK   40  A    between atoms: _97  and  _98
REMARK   41  A    between atoms: _98  and  _99
REMARK   42  A    between atoms: _99  and  _100
REMARK   43  A    between atoms: _109  and  _111
REMARK   44  A    between atoms: _111  and  _112
REMARK   45  A    between atoms: _111  and  _114
REMARK   46  A    between atoms: _114  and  _115
REMARK   47  A    between atoms: _120  and  _122
REMARK   48  A    between atoms: _122  and  _123
REMARK   49  A    between atoms: _125  and  _127
REMARK   50  A    between atoms: _127  and  _128
REMARK   51  A    between atoms: _127  and  _130
REMARK   52  A    between atoms: _130  and  _131
REMARK   53  A    between atoms: _134  and  _136
REMARK   54  A    between atoms: _136  and  _137
REMARK   55  A    between atoms: _136  and  _139
REMARK   56  A    between atoms: _141  and  _143
REMARK   57  A    between atoms: _143  and  _144
REMARK   58  A    between atoms: _143  and  _146
REMARK   59  A    between atoms: _146  and  _147
REMARK   60  A    between atoms: _147  and  _148
REMARK   61  A    between atoms: _148  and  _149
REMARK   62  A    between atoms: _158  and  _160
REMARK   63  A    between atoms: _160  and  _161
REMARK   64  A    between atoms: _160  and  _163
REMARK   65  A    between atoms: _163  and  _164
REMARK   66  A    between atoms: _164  and  _165
REMARK   67  A    between atoms: _167  and  _169
REMARK   68  A    between atoms: _169  and  _170
REMARK   69  A    between atoms: _169  and  _172
REMARK   70  A    between atoms: _172  and  _173
REMARK   71  A    between atoms: _176  and  _178
REMARK   72  A    between atoms: _178  and  _179
REMARK   73  A    between atoms: _178  and  _181
REMARK   74  A    between atoms: _181  and  _182
REMARK   75  A    between atoms: _185  and  _187
REMARK   76  A    between atoms: _187  and  _188
REMARK   77  A    between atoms: _190  and  _192
REMARK   78  A    between atoms: _192  and  _193
REMARK   79  A    between atoms: _192  and  _195
REMARK   80  A    between atoms: _195  and  _196
REMARK   81  A    between atoms: _196  and  _197
REMARK   82  A    between atoms: _200  and  _202
REMARK   83  A    between atoms: _202  and  _203
REMARK   84  A    between atoms: _202  and  _205
REMARK   85  A    between atoms: _208  and  _210
REMARK   86  A    between atoms: _210  and  _211
REMARK   87  A    between atoms: _210  and  _213
REMARK   88  A    between atoms: _213  and  _214
REMARK   89  A    between atoms: _217  and  _219
REMARK   90  A    between atoms: _219  and  _220
REMARK   91  A    between atoms: _219  and  _222
REMARK   92  A    between atoms: _222  and  _223
REMARK   93  A    between atoms: _226  and  _228
REMARK   94  A    between atoms: _228  and  _229
REMARK   95  A    between atoms: _232  and  _234
REMARK   96  A    between atoms: _234  and  _235
REMARK   97  A    between atoms: _234  and  _237
REMARK   98  A    between atoms: _240  and  _242
REMARK   99  A    between atoms: _242  and  _243
REMARK  100  A    between atoms: _242  and  _245
REMARK  101  A    between atoms: _245  and  _246
REMARK  102  A    between atoms: _246  and  _247
REMARK  103  A    between atoms: _250  and  _252
REMARK  104  A    between atoms: _252  and  _253
REMARK  105  A    between atoms: _256  and  _258
REMARK  106  A    between atoms: _258  and  _259
REMARK  107  A    between atoms: _262  and  _264
REMARK  108  A    between atoms: _264  and  _265
REMARK  109  A    between atoms: _264  and  _267
REMARK  110  A    between atoms: _267  and  _268
REMARK  111  A    between atoms: _270  and  _272
REMARK  112  A    between atoms: _272  and  _273
REMARK  113  A    between atoms: _272  and  _275
REMARK  114  A    between atoms: _275  and  _276
REMARK  115  A    between atoms: _286  and  _288
REMARK  116  A    between atoms: _288  and  _289
REMARK  117  A    between atoms: _292  and  _293
REMARK  118  A    between atoms: _298  and  _300
REMARK  119  A    between atoms: _300  and  _301
REMARK  120  A    between atoms: _300  and  _303
REMARK  121  A    between atoms: _303  and  _304
REMARK  122  A    between atoms: _304  and  _305
REMARK  123  A    between atoms: _308  and  _310
REMARK  124  A    between atoms: _310  and  _311
REMARK  125  A    between atoms: _310  and  _313
REMARK  126  A    between atoms: _313  and  _314
REMARK  127  A    between atoms: _317  and  _319
REMARK  128  A    between atoms: _319  and  _320
REMARK  129  A    between atoms: _319  and  _322
REMARK  130  A    between atoms: _322  and  _323
REMARK  131  A    between atoms: _326  and  _328
REMARK  132  A    between atoms: _328  and  _329
REMARK  133  A    between atoms: _328  and  _331
REMARK  134  A    between atoms: _331  and  _332
REMARK  135  A    between atoms: _335  and  _337
REMARK  136  A    between atoms: _337  and  _338
REMARK  137  A    between atoms: _337  and  _340
REMARK  138  A    between atoms: _343  and  _345
REMARK  139  A    between atoms: _345  and  _346
REMARK  140  A    between atoms: _345  and  _348
REMARK  141  A    between atoms: _348  and  _349
REMARK  142  A    between atoms: _352  and  _354
REMARK  143  A    between atoms: _354  and  _355
REMARK  144  A    between atoms: _358  and  _359
REMARK  145  A    between atoms: _364  and  _366
REMARK  146  A    between atoms: _366  and  _367
REMARK  147  A    between atoms: _370  and  _372
REMARK  148  A    between atoms: _372  and  _373
REMARK  149  A    between atoms: _372  and  _375
REMARK  150  A    between atoms: _375  and  _376
REMARK  151  A    between atoms: _376  and  _377
REMARK  152  A    between atoms: _377  and  _378
REMARK  153  A    between atoms: _387  and  _389
REMARK  154  A    between atoms: _389  and  _390
REMARK  155  A    between atoms: _389  and  _392
REMARK  156  A    between atoms: _392  and  _393
REMARK  157  A    between atoms: _396  and  _398
REMARK  158  A    between atoms: _398  and  _399
REMARK  159  A    between atoms: _402  and  _404
REMARK  160  A    between atoms: _404  and  _405
REMARK  161  A    between atoms: _404  and  _407
REMARK  162  A    between atoms: _407  and  _408
REMARK  163  A    between atoms: _408  and  _409
REMARK  164  A    between atoms: _412  and  _414
REMARK  165  A    between atoms: _414  and  _415
REMARK  166  A    between atoms: _414  and  _417
REMARK  167  A    between atoms: _417  and  _418
REMARK  168  A    between atoms: _428  and  _430
REMARK  169  A    between atoms: _430  and  _431
REMARK  170  A    between atoms: _434  and  _436
REMARK  171  A    between atoms: _436  and  _437
REMARK  172  A    between atoms: _436  and  _439
REMARK  173  A    between atoms: _439  and  _440
REMARK  174  A    between atoms: _442  and  _444
REMARK  175  A    between atoms: _444  and  _445
REMARK  176  A    between atoms: _447  and  _449
REMARK  177  A    between atoms: _449  and  _450
REMARK  178  A    between atoms: _449  and  _452
REMARK  179  A    between atoms: _452  and  _453
REMARK  180  A    between atoms: _458  and  _460
REMARK  181  A    between atoms: _460  and  _461
REMARK  182  A    between atoms: _463  and  _465
REMARK  183  A    between atoms: _465  and  _466
REMARK  184  A    between atoms: _465  and  _468
REMARK  185  A    between atoms: _468  and  _469
REMARK  186  A    between atoms: _469  and  _471
REMARK  187  A    between atoms: _471  and  CA_629
REMARK  188  A    between atoms: _472  and  _474
REMARK  189  A    between atoms: _474  and  _475
REMARK  190  A    between atoms: _474  and  _477
REMARK  191  A    between atoms: _477  and  _478
REMARK  192  A    between atoms: _480  and  _482
REMARK  193  A    between atoms: _482  and  _483
REMARK  194  A    between atoms: _482  and  _485
REMARK  195  A    between atoms: _487  and  _489
REMARK  196  A    between atoms: _489  and  _490
REMARK  197  A    between atoms: _489  and  _492
REMARK  198  A    between atoms: _494  and  _496
REMARK  199  A    between atoms: _496  and  _497
REMARK  200  A    between atoms: _496  and  _499
REMARK  201  A    between atoms: _499  and  _500
REMARK  202  A    between atoms: _503  and  _505
REMARK  203  A    between atoms: _505  and  _506
REMARK  204  A    between atoms: _508  and  _510
REMARK  205  A    between atoms: _510  and  _511
REMARK  206  A    between atoms: _510  and  _513
REMARK  207  A    between atoms: _513  and  _514
REMARK  208  A    between atoms: _519  and  _520
REMARK  209  A    between atoms: _522  and  _524
REMARK  210  A    between atoms: _524  and  _525
REMARK  211  A    between atoms: _524  and  _527
REMARK  212  A    between atoms: _527  and  _528
REMARK  213  A    between atoms: _531  and  _533
REMARK  214  A    between atoms: _533  and  _534
REMARK  215  A    between atoms: _533  and  _536
REMARK  216  A    between atoms: _536  and  _537
REMARK  217  A    between atoms: _542  and  _544
REMARK  218  A    between atoms: _544  and  _545
REMARK  219  A    between atoms: _544  and  _547
REMARK  220  A    between atoms: _547  and  _548
REMARK  221  A    between atoms: _551  and  _553
REMARK  222  A    between atoms: _553  and  _554
REMARK  223  A    between atoms: _553  and  _556
REMARK  224  A    between atoms: _556  and  _557
REMARK  225  A    between atoms: _559  and  _561
REMARK  226  A    between atoms: _561  and  _562
REMARK  227  A    between atoms: _561  and  _564
REMARK  228  A    between atoms: _564  and  _565
REMARK  229  A    between atoms: _568  and  _570
REMARK  230  A    between atoms: _570  and  _571
REMARK  231  A    between atoms: _570  and  _573
REMARK  232  A    between atoms: _573  and  _574
REMARK  233  A    between atoms: _574  and  _575
REMARK  234  A    between atoms: _578  and  _580
REMARK  235  A    between atoms: _580  and  _581
REMARK  236  A    between atoms: _580  and  _583
REMARK  237  A    between atoms: _583  and  _584
REMARK  238  A    between atoms: _587  and  _589
REMARK  239  A    between atoms: _589  and  _590
REMARK  240  A    between atoms: _592  and  _594
REMARK  241  A    between atoms: _594  and  _595
REMARK  242  A    between atoms: _594  and  _597
REMARK  243  A    between atoms: _597  and  _598
REMARK  244  A    between atoms: _601  and  _603
REMARK  245  A    between atoms: _603  and  _604
REMARK  246  A    between atoms: _603  and  _606
REMARK  247  A    between atoms: _606  and  _607
REMARK  248  A    between atoms: _609  and  _611
REMARK  249  A    between atoms: _611  and  _612
REMARK  250  A    between atoms: _615  and  _617
REMARK  251  A    between atoms: _617  and  _618
REMARK  252  A    between atoms: _617  and  _620
REMARK  253  A    between atoms: _620  and  _621
REMARK  254  A    between atoms: _623  and  _625
REMARK  255  A    between atoms: _625  and  _626
REMARK                            x       y       z     vdW  Elec       q    Type
REMARK                         _______ _______ _______ _____ _____    ______ ____
ROOT
ATOM      1  O   HOH     1      30.602  18.107 -11.321  0.00  0.00    +0.000 OA
ENDROOT
TORSDOF 0
REMARK  Name = ../refined-set-2016/4ryd/4ryd_pocket.pdb
REMARK  255 active torsions:
REMARK  status: ('A' for Active; 'I' for Inactive)
REMARK    1  A    between atoms: _1  and  _3
REMARK    2  A    between atoms: _3  and  _4
REMARK    3  A    between atoms: _3  and  _6
REMARK    4  A    between atoms: _6  and  _7
REMARK    5  A    between atoms: _10  and  _12
REMARK    6  A    between atoms: _12  and  _13
REMARK    7  A    between atoms: _12  and  _15
REMARK    8  A    between atoms: _15  and  _16
REMARK    9  A    between atoms: _19  and  _21
REMARK   10  A    between atoms: _21  and  _22
REMARK   11  A    between atoms: _24  and  _26
REMARK   12  A    between atoms: _26  and  _27
REMARK   13  A    between atoms: _26  and  _29
REMARK   14  A    between atoms: _29  and  _30
REMARK   15  A    between atoms: _35  and  _37
REMARK   16  A    between atoms: _37  and  _38
REMARK   17  A    between atoms: _37  and  _40
REMARK   18  A    between atoms: _40  and  _41
REMARK   19  A    between atoms: _41  and  _42
REMARK   20  A    between atoms: _42  and  _43
REMARK   21  A    between atoms: _52  and  _54
REMARK   22  A    between atoms: _54  and  _55
REMARK   23  A    between atoms: _54  and  _57
REMARK   24  A    between atoms: _57  and  _58
REMARK   25  A    between atoms: _61  and  _63
REMARK   26  A    between atoms: _63  and  _64
REMARK   27  A    between atoms: _63  and  _66
REMARK   28  A    between atoms: _66  and  _67
REMARK   29  A    between atoms: _72  and  _74
REMARK   30  A    between atoms: _74  and  _75
REMARK   31  A    between atoms: _74  and  _77
REMARK   32  A    between atoms: _77  and  _78
REMARK   33  A    between atoms: _81  and  _83
REMARK   34  A    between atoms: _83  and  _84
REMARK   35  A    between atoms: _83  and  _86
REMARK   36  A    between atoms: _86  and  _87
REMARK   37  A    between atoms: _92  and  _94
REMARK   38  A    between atoms: _94  and  _95
REMARK   39  A    between atoms: _94  and  _97
REMARK   40  A    between atoms: _97  and  _98
REMARK   41  A    between atoms: _98  and  _99
REMARK   42  A    between atoms: _99  and  _100
REMARK   43  A    between atoms: _109  and  _111
REMARK   44  A    between atoms: _111  and  _112
REMARK   45  A    between atoms: _111  and  _114
REMARK   46  A    between atoms: _114  and  _115
REMARK   47  A    between atoms: _120  and  _122
REMARK   48  A    between atoms: _122  and  _123
REMARK   49  A    between atoms: _125  and  _127
REMARK   50  A    between atoms: _127  and  _128
REMARK   51  A    between atoms: _127  and  _130
REMARK   52  A    between atoms: _130  and  _131
REMARK   53  A    between atoms: _134  and  _136
REMARK   54  A    between atoms: _136  and  _137
REMARK   55  A    between atoms: _136  and  _139
REMARK   56  A    between atoms: _141  and  _143
REMARK   57  A    between atoms: _143  and  _144
REMARK   58  A    between atoms: _143  and  _146
REMARK   59  A    between atoms: _146  and  _147
REMARK   60  A    between atoms: _147  and  _148
REMARK   61  A    between atoms: _148  and  _149
REMARK   62  A    between atoms: _158  and  _160
REMARK   63  A    between atoms: _160  and  _161
REMARK   64  A    between atoms: _160  and  _163
REMARK   65  A    between atoms: _163  and  _164
REMARK   66  A    between atoms: _164  and  _165
REMARK   67  A    between atoms: _167  and  _169
REMARK   68  A    between atoms: _169  and  _170
REMARK   69  A    between atoms: _169  and  _172
REMARK   70  A    between atoms: _172  and  _173
REMARK   71  A    between atoms: _176  and  _178
REMARK   72  A    between atoms: _178  and  _179
REMARK   73  A    between atoms: _178  and  _181
REMARK   74  A    between atoms: _181  and  _182
REMARK   75  A    between atoms: _185  and  _187
REMARK   76  A    between atoms: _187  and  _188
REMARK   77  A    between atoms: _190  and  _192
REMARK   78  A    between atoms: _192  and  _193
REMARK   79  A    between atoms: _192  and  _195
REMARK   80  A    between atoms: _195  and  _196
REMARK   81  A    between atoms: _196  and  _197
REMARK   82  A    between atoms: _200  and  _202
REMARK   83  A    between atoms: _202  and  _203
REMARK   84  A    between atoms: _202  and  _205
REMARK   85  A    between atoms: _208  and  _210
REMARK   86  A    between atoms: _210  and  _211
REMARK   87  A    between atoms: _210  and  _213
REMARK   88  A    between atoms: _213  and  _214
REMARK   89  A    between atoms: _217  and  _219
REMARK   90  A    between atoms: _219  and  _220
REMARK   91  A    between atoms: _219  and  _222
REMARK   92  A    between atoms: _222  and  _223
REMARK   93  A    between atoms: _226  and  _228
REMARK   94  A    between atoms: _228  and  _229
REMARK   95  A    between atoms: _232  and  _234
REMARK   96  A    between atoms: _234  and  _235
REMARK   97  A    between atoms: _234  and  _237
REMARK   98  A    between atoms: _240  and  _242
REMARK   99  A    between atoms: _242  and  _243
REMARK  100  A    between atoms: _242  and  _245
REMARK  101  A    between atoms: _245  and  _246
REMARK  102  A    between atoms: _246  and  _247
REMARK  103  A    between atoms: _250  and  _252
REMARK  104  A    between atoms: _252  and  _253
REMARK  105  A    between atoms: _256  and  _258
REMARK  106  A    between atoms: _258  and  _259
REMARK  107  A    between atoms: _262  and  _264
REMARK  108  A    between atoms: _264  and  _265
REMARK  109  A    between atoms: _264  and  _267
REMARK  110  A    between atoms: _267  and  _268
REMARK  111  A    between atoms: _270  and  _272
REMARK  112  A    between atoms: _272  and  _273
REMARK  113  A    between atoms: _272  and  _275
REMARK  114  A    between atoms: _275  and  _276
REMARK  115  A    between atoms: _286  and  _288
REMARK  116  A    between atoms: _288  and  _289
REMARK  117  A    between atoms: _292  and  _293
REMARK  118  A    between atoms: _298  and  _300
REMARK  119  A    between atoms: _300  and  _301
REMARK  120  A    between atoms: _300  and  _303
REMARK  121  A    between atoms: _303  and  _304
REMARK  122  A    between atoms: _304  and  _305
REMARK  123  A    between atoms: _308  and  _310
REMARK  124  A    between atoms: _310  and  _311
REMARK  125  A    between atoms: _310  and  _313
REMARK  126  A    between atoms: _313  and  _314
REMARK  127  A    between atoms: _317  and  _319
REMARK  128  A    between atoms: _319  and  _320
REMARK  129  A    between atoms: _319  and  _322
REMARK  130  A    between atoms: _322  and  _323
REMARK  131  A    between atoms: _326  and  _328
REMARK  132  A    between atoms: _328  and  _329
REMARK  133  A    between atoms: _328  and  _331
REMARK  134  A    between atoms: _331  and  _332
REMARK  135  A    between atoms: _335  and  _337
REMARK  136  A    between atoms: _337  and  _338
REMARK  137  A    between atoms: _337  and  _340
REMARK  138  A    between atoms: _343  and  _345
REMARK  139  A    between atoms: _345  and  _346
REMARK  140  A    between atoms: _345  and  _348
REMARK  141  A    between atoms: _348  and  _349
REMARK  142  A    between atoms: _352  and  _354
REMARK  143  A    between atoms: _354  and  _355
REMARK  144  A    between atoms: _358  and  _359
REMARK  145  A    between atoms: _364  and  _366
REMARK  146  A    between atoms: _366  and  _367
REMARK  147  A    between atoms: _370  and  _372
REMARK  148  A    between atoms: _372  and  _373
REMARK  149  A    between atoms: _372  and  _375
REMARK  150  A    between atoms: _375  and  _376
REMARK  151  A    between atoms: _376  and  _377
REMARK  152  A    between atoms: _377  and  _378
REMARK  153  A    between atoms: _387  and  _389
REMARK  154  A    between atoms: _389  and  _390
REMARK  155  A    between atoms: _389  and  _392
REMARK  156  A    between atoms: _392  and  _393
REMARK  157  A    between atoms: _396  and  _398
REMARK  158  A    between atoms: _398  and  _399
REMARK  159  A    between atoms: _402  and  _404
REMARK  160  A    between atoms: _404  and  _405
REMARK  161  A    between atoms: _404  and  _407
REMARK  162  A    between atoms: _407  and  _408
REMARK  163  A    between atoms: _408  and  _409
REMARK  164  A    between atoms: _412  and  _414
REMARK  165  A    between atoms: _414  and  _415
REMARK  166  A    between atoms: _414  and  _417
REMARK  167  A    between atoms: _417  and  _418
REMARK  168  A    between atoms: _428  and  _430
REMARK  169  A    between atoms: _430  and  _431
REMARK  170  A    between atoms: _434  and  _436
REMARK  171  A    between atoms: _436  and  _437
REMARK  172  A    between atoms: _436  and  _439
REMARK  173  A    between atoms: _439  and  _440
REMARK  174  A    between atoms: _442  and  _444
REMARK  175  A    between atoms: _444  and  _445
REMARK  176  A    between atoms: _447  and  _449
REMARK  177  A    between atoms: _449  and  _450
REMARK  178  A    between atoms: _449  and  _452
REMARK  179  A    between atoms: _452  and  _453
REMARK  180  A    between atoms: _458  and  _460
REMARK  181  A    between atoms: _460  and  _461
REMARK  182  A    between atoms: _463  and  _465
REMARK  183  A    between atoms: _465  and  _466
REMARK  184  A    between atoms: _465  and  _468
REMARK  185  A    between atoms: _468  and  _469
REMARK  186  A    between atoms: _469  and  _471
REMARK  187  A    between atoms: _471  and  CA_629
REMARK  188  A    between atoms: _472  and  _474
REMARK  189  A    between atoms: _474  and  _475
REMARK  190  A    between atoms: _474  and  _477
REMARK  191  A    between atoms: _477  and  _478
REMARK  192  A    between atoms: _480  and  _482
REMARK  193  A    between atoms: _482  and  _483
REMARK  194  A    between atoms: _482  and  _485
REMARK  195  A    between atoms: _487  and  _489
REMARK  196  A    between atoms: _489  and  _490
REMARK  197  A    between atoms: _489  and  _492
REMARK  198  A    between atoms: _494  and  _496
REMARK  199  A    between atoms: _496  and  _497
REMARK  200  A    between atoms: _496  and  _499
REMARK  201  A    between atoms: _499  and  _500
REMARK  202  A    between atoms: _503  and  _505
REMARK  203  A    between atoms: _505  and  _506
REMARK  204  A    between atoms: _508  and  _510
REMARK  205  A    between atoms: _510  and  _511
REMARK  206  A    between atoms: _510  and  _513
REMARK  207  A    between atoms: _513  and  _514
REMARK  208  A    between atoms: _519  and  _520
REMARK  209  A    between atoms: _522  and  _524
REMARK  210  A    between atoms: _524  and  _525
REMARK  211  A    between atoms: _524  and  _527
REMARK  212  A    between atoms: _527  and  _528
REMARK  213  A    between atoms: _531  and  _533
REMARK  214  A    between atoms: _533  and  _534
REMARK  215  A    between atoms: _533  and  _536
REMARK  216  A    between atoms: _536  and  _537
REMARK  217  A    between atoms: _542  and  _544
REMARK  218  A    between atoms: _544  and  _545
REMARK  219  A    between atoms: _544  and  _547
REMARK  220  A    between atoms: _547  and  _548
REMARK  221  A    between atoms: _551  and  _553
REMARK  222  A    between atoms: _553  and  _554
REMARK  223  A    between atoms: _553  and  _556
REMARK  224  A    between atoms: _556  and  _557
REMARK  225  A    between atoms: _559  and  _561
REMARK  226  A    between atoms: _561  and  _562
REMARK  227  A    between atoms: _561  and  _564
REMARK  228  A    between atoms: _564  and  _565
REMARK  229  A    between atoms: _568  and  _570
REMARK  230  A    between atoms: _570  and  _571
REMARK  231  A    between atoms: _570  and  _573
REMARK  232  A    between atoms: _573  and  _574
REMARK  233  A    between atoms: _574  and  _575
REMARK  234  A    between atoms: _578  and  _580
REMARK  235  A    between atoms: _580  and  _581
REMARK  236  A    between atoms: _580  and  _583
REMARK  237  A    between atoms: _583  and  _584
REMARK  238  A    between atoms: _587  and  _589
REMARK  239  A    between atoms: _589  and  _590
REMARK  240  A    between atoms: _592  and  _594
REMARK  241  A    between atoms: _594  and  _595
REMARK  242  A    between atoms: _594  and  _597
REMARK  243  A    between atoms: _597  and  _598
REMARK  244  A    between atoms: _601  and  _603
REMARK  245  A    between atoms: _603  and  _604
REMARK  246  A    between atoms: _603  and  _606
REMARK  247  A    between atoms: _606  and  _607
REMARK  248  A    between atoms: _609  and  _611
REMARK  249  A    between atoms: _611  and  _612
REMARK  250  A    between atoms: _615  and  _617
REMARK  251  A    between atoms: _617  and  _618
REMARK  252  A    between atoms: _617  and  _620
REMARK  253  A    between atoms: _620  and  _621
REMARK  254  A    between atoms: _623  and  _625
REMARK  255  A    between atoms: _625  and  _626
REMARK                            x       y       z     vdW  Elec       q    Type
REMARK                         _______ _______ _______ _____ _____    ______ ____
ROOT
ATOM      1  O   HOH     1      23.526  38.996  -4.706  0.00  0.00    +0.000 OA
ENDROOT
TORSDOF 0
REMARK  Name = ../refined-set-2016/4ryd/4ryd_pocket.pdb
REMARK  255 active torsions:
REMARK  status: ('A' for Active; 'I' for Inactive)
REMARK    1  A    between atoms: _1  and  _3
REMARK    2  A    between atoms: _3  and  _4
REMARK    3  A    between atoms: _3  and  _6
REMARK    4  A    between atoms: _6  and  _7
REMARK    5  A    between atoms: _10  and  _12
REMARK    6  A    between atoms: _12  and  _13
REMARK    7  A    between atoms: _12  and  _15
REMARK    8  A    between atoms: _15  and  _16
REMARK    9  A    between atoms: _19  and  _21
REMARK   10  A    between atoms: _21  and  _22
REMARK   11  A    between atoms: _24  and  _26
REMARK   12  A    between atoms: _26  and  _27
REMARK   13  A    between atoms: _26  and  _29
REMARK   14  A    between atoms: _29  and  _30
REMARK   15  A    between atoms: _35  and  _37
REMARK   16  A    between atoms: _37  and  _38
REMARK   17  A    between atoms: _37  and  _40
REMARK   18  A    between atoms: _40  and  _41
REMARK   19  A    between atoms: _41  and  _42
REMARK   20  A    between atoms: _42  and  _43
REMARK   21  A    between atoms: _52  and  _54
REMARK   22  A    between atoms: _54  and  _55
REMARK   23  A    between atoms: _54  and  _57
REMARK   24  A    between atoms: _57  and  _58
REMARK   25  A    between atoms: _61  and  _63
REMARK   26  A    between atoms: _63  and  _64
REMARK   27  A    between atoms: _63  and  _66
REMARK   28  A    between atoms: _66  and  _67
REMARK   29  A    between atoms: _72  and  _74
REMARK   30  A    between atoms: _74  and  _75
REMARK   31  A    between atoms: _74  and  _77
REMARK   32  A    between atoms: _77  and  _78
REMARK   33  A    between atoms: _81  and  _83
REMARK   34  A    between atoms: _83  and  _84
REMARK   35  A    between atoms: _83  and  _86
REMARK   36  A    between atoms: _86  and  _87
REMARK   37  A    between atoms: _92  and  _94
REMARK   38  A    between atoms: _94  and  _95
REMARK   39  A    between atoms: _94  and  _97
REMARK   40  A    between atoms: _97  and  _98
REMARK   41  A    between atoms: _98  and  _99
REMARK   42  A    between atoms: _99  and  _100
REMARK   43  A    between atoms: _109  and  _111
REMARK   44  A    between atoms: _111  and  _112
REMARK   45  A    between atoms: _111  and  _114
REMARK   46  A    between atoms: _114  and  _115
REMARK   47  A    between atoms: _120  and  _122
REMARK   48  A    between atoms: _122  and  _123
REMARK   49  A    between atoms: _125  and  _127
REMARK   50  A    between atoms: _127  and  _128
REMARK   51  A    between atoms: _127  and  _130
REMARK   52  A    between atoms: _130  and  _131
REMARK   53  A    between atoms: _134  and  _136
REMARK   54  A    between atoms: _136  and  _137
REMARK   55  A    between atoms: _136  and  _139
REMARK   56  A    between atoms: _141  and  _143
REMARK   57  A    between atoms: _143  and  _144
REMARK   58  A    between atoms: _143  and  _146
REMARK   59  A    between atoms: _146  and  _147
REMARK   60  A    between atoms: _147  and  _148
REMARK   61  A    between atoms: _148  and  _149
REMARK   62  A    between atoms: _158  and  _160
REMARK   63  A    between atoms: _160  and  _161
REMARK   64  A    between atoms: _160  and  _163
REMARK   65  A    between atoms: _163  and  _164
REMARK   66  A    between atoms: _164  and  _165
REMARK   67  A    between atoms: _167  and  _169
REMARK   68  A    between atoms: _169  and  _170
REMARK   69  A    between atoms: _169  and  _172
REMARK   70  A    between atoms: _172  and  _173
REMARK   71  A    between atoms: _176  and  _178
REMARK   72  A    between atoms: _178  and  _179
REMARK   73  A    between atoms: _178  and  _181
REMARK   74  A    between atoms: _181  and  _182
REMARK   75  A    between atoms: _185  and  _187
REMARK   76  A    between atoms: _187  and  _188
REMARK   77  A    between atoms: _190  and  _192
REMARK   78  A    between atoms: _192  and  _193
REMARK   79  A    between atoms: _192  and  _195
REMARK   80  A    between atoms: _195  and  _196
REMARK   81  A    between atoms: _196  and  _197
REMARK   82  A    between atoms: _200  and  _202
REMARK   83  A    between atoms: _202  and  _203
REMARK   84  A    between atoms: _202  and  _205
REMARK   85  A    between atoms: _208  and  _210
REMARK   86  A    between atoms: _210  and  _211
REMARK   87  A    between atoms: _210  and  _213
REMARK   88  A    between atoms: _213  and  _214
REMARK   89  A    between atoms: _217  and  _219
REMARK   90  A    between atoms: _219  and  _220
REMARK   91  A    between atoms: _219  and  _222
REMARK   92  A    between atoms: _222  and  _223
REMARK   93  A    between atoms: _226  and  _228
REMARK   94  A    between atoms: _228  and  _229
REMARK   95  A    between atoms: _232  and  _234
REMARK   96  A    between atoms: _234  and  _235
REMARK   97  A    between atoms: _234  and  _237
REMARK   98  A    between atoms: _240  and  _242
REMARK   99  A    between atoms: _242  and  _243
REMARK  100  A    between atoms: _242  and  _245
REMARK  101  A    between atoms: _245  and  _246
REMARK  102  A    between atoms: _246  and  _247
REMARK  103  A    between atoms: _250  and  _252
REMARK  104  A    between atoms: _252  and  _253
REMARK  105  A    between atoms: _256  and  _258
REMARK  106  A    between atoms: _258  and  _259
REMARK  107  A    between atoms: _262  and  _264
REMARK  108  A    between atoms: _264  and  _265
REMARK  109  A    between atoms: _264  and  _267
REMARK  110  A    between atoms: _267  and  _268
REMARK  111  A    between atoms: _270  and  _272
REMARK  112  A    between atoms: _272  and  _273
REMARK  113  A    between atoms: _272  and  _275
REMARK  114  A    between atoms: _275  and  _276
REMARK  115  A    between atoms: _286  and  _288
REMARK  116  A    between atoms: _288  and  _289
REMARK  117  A    between atoms: _292  and  _293
REMARK  118  A    between atoms: _298  and  _300
REMARK  119  A    between atoms: _300  and  _301
REMARK  120  A    between atoms: _300  and  _303
REMARK  121  A    between atoms: _303  and  _304
REMARK  122  A    between atoms: _304  and  _305
REMARK  123  A    between atoms: _308  and  _310
REMARK  124  A    between atoms: _310  and  _311
REMARK  125  A    between atoms: _310  and  _313
REMARK  126  A    between atoms: _313  and  _314
REMARK  127  A    between atoms: _317  and  _319
REMARK  128  A    between atoms: _319  and  _320
REMARK  129  A    between atoms: _319  and  _322
REMARK  130  A    between atoms: _322  and  _323
REMARK  131  A    between atoms: _326  and  _328
REMARK  132  A    between atoms: _328  and  _329
REMARK  133  A    between atoms: _328  and  _331
REMARK  134  A    between atoms: _331  and  _332
REMARK  135  A    between atoms: _335  and  _337
REMARK  136  A    between atoms: _337  and  _338
REMARK  137  A    between atoms: _337  and  _340
REMARK  138  A    between atoms: _343  and  _345
REMARK  139  A    between atoms: _345  and  _346
REMARK  140  A    between atoms: _345  and  _348
REMARK  141  A    between atoms: _348  and  _349
REMARK  142  A    between atoms: _352  and  _354
REMARK  143  A    between atoms: _354  and  _355
REMARK  144  A    between atoms: _358  and  _359
REMARK  145  A    between atoms: _364  and  _366
REMARK  146  A    between atoms: _366  and  _367
REMARK  147  A    between atoms: _370  and  _372
REMARK  148  A    between atoms: _372  and  _373
REMARK  149  A    between atoms: _372  and  _375
REMARK  150  A    between atoms: _375  and  _376
REMARK  151  A    between atoms: _376  and  _377
REMARK  152  A    between atoms: _377  and  _378
REMARK  153  A    between atoms: _387  and  _389
REMARK  154  A    between atoms: _389  and  _390
REMARK  155  A    between atoms: _389  and  _392
REMARK  156  A    between atoms: _392  and  _393
REMARK  157  A    between atoms: _396  and  _398
REMARK  158  A    between atoms: _398  and  _399
REMARK  159  A    between atoms: _402  and  _404
REMARK  160  A    between atoms: _404  and  _405
REMARK  161  A    between atoms: _404  and  _407
REMARK  162  A    between atoms: _407  and  _408
REMARK  163  A    between atoms: _408  and  _409
REMARK  164  A    between atoms: _412  and  _414
REMARK  165  A    between atoms: _414  and  _415
REMARK  166  A    between atoms: _414  and  _417
REMARK  167  A    between atoms: _417  and  _418
REMARK  168  A    between atoms: _428  and  _430
REMARK  169  A    between atoms: _430  and  _431
REMARK  170  A    between atoms: _434  and  _436
REMARK  171  A    between atoms: _436  and  _437
REMARK  172  A    between atoms: _436  and  _439
REMARK  173  A    between atoms: _439  and  _440
REMARK  174  A    between atoms: _442  and  _444
REMARK  175  A    between atoms: _444  and  _445
REMARK  176  A    between atoms: _447  and  _449
REMARK  177  A    between atoms: _449  and  _450
REMARK  178  A    between atoms: _449  and  _452
REMARK  179  A    between atoms: _452  and  _453
REMARK  180  A    between atoms: _458  and  _460
REMARK  181  A    between atoms: _460  and  _461
REMARK  182  A    between atoms: _463  and  _465
REMARK  183  A    between atoms: _465  and  _466
REMARK  184  A    between atoms: _465  and  _468
REMARK  185  A    between atoms: _468  and  _469
REMARK  186  A    between atoms: _469  and  _471
REMARK  187  A    between atoms: _471  and  CA_629
REMARK  188  A    between atoms: _472  and  _474
REMARK  189  A    between atoms: _474  and  _475
REMARK  190  A    between atoms: _474  and  _477
REMARK  191  A    between atoms: _477  and  _478
REMARK  192  A    between atoms: _480  and  _482
REMARK  193  A    between atoms: _482  and  _483
REMARK  194  A    between atoms: _482  and  _485
REMARK  195  A    between atoms: _487  and  _489
REMARK  196  A    between atoms: _489  and  _490
REMARK  197  A    between atoms: _489  and  _492
REMARK  198  A    between atoms: _494  and  _496
REMARK  199  A    between atoms: _496  and  _497
REMARK  200  A    between atoms: _496  and  _499
REMARK  201  A    between atoms: _499  and  _500
REMARK  202  A    between atoms: _503  and  _505
REMARK  203  A    between atoms: _505  and  _506
REMARK  204  A    between atoms: _508  and  _510
REMARK  205  A    between atoms: _510  and  _511
REMARK  206  A    between atoms: _510  and  _513
REMARK  207  A    between atoms: _513  and  _514
REMARK  208  A    between atoms: _519  and  _520
REMARK  209  A    between atoms: _522  and  _524
REMARK  210  A    between atoms: _524  and  _525
REMARK  211  A    between atoms: _524  and  _527
REMARK  212  A    between atoms: _527  and  _528
REMARK  213  A    between atoms: _531  and  _533
REMARK  214  A    between atoms: _533  and  _534
REMARK  215  A    between atoms: _533  and  _536
REMARK  216  A    between atoms: _536  and  _537
REMARK  217  A    between atoms: _542  and  _544
REMARK  218  A    between atoms: _544  and  _545
REMARK  219  A    between atoms: _544  and  _547
REMARK  220  A    between atoms: _547  and  _548
REMARK  221  A    between atoms: _551  and  _553
REMARK  222  A    between atoms: _553  and  _554
REMARK  223  A    between atoms: _553  and  _556
REMARK  224  A    between atoms: _556  and  _557
REMARK  225  A    between atoms: _559  and  _561
REMARK  226  A    between atoms: _561  and  _562
REMARK  227  A    between atoms: _561  and  _564
REMARK  228  A    between atoms: _564  and  _565
REMARK  229  A    between atoms: _568  and  _570
REMARK  230  A    between atoms: _570  and  _571
REMARK  231  A    between atoms: _570  and  _573
REMARK  232  A    between atoms: _573  and  _574
REMARK  233  A    between atoms: _574  and  _575
REMARK  234  A    between atoms: _578  and  _580
REMARK  235  A    between atoms: _580  and  _581
REMARK  236  A    between atoms: _580  and  _583
REMARK  237  A    between atoms: _583  and  _584
REMARK  238  A    between atoms: _587  and  _589
REMARK  239  A    between atoms: _589  and  _590
REMARK  240  A    between atoms: _592  and  _594
REMARK  241  A    between atoms: _594  and  _595
REMARK  242  A    between atoms: _594  and  _597
REMARK  243  A    between atoms: _597  and  _598
REMARK  244  A    between atoms: _601  and  _603
REMARK  245  A    between atoms: _603  and  _604
REMARK  246  A    between atoms: _603  and  _606
REMARK  247  A    between atoms: _606  and  _607
REMARK  248  A    between atoms: _609  and  _611
REMARK  249  A    between atoms: _611  and  _612
REMARK  250  A    between atoms: _615  and  _617
REMARK  251  A    between atoms: _617  and  _618
REMARK  252  A    between atoms: _617  and  _620
REMARK  253  A    between atoms: _620  and  _621
REMARK  254  A    between atoms: _623  and  _625
REMARK  255  A    between atoms: _625  and  _626
REMARK                            x       y       z     vdW  Elec       q    Type
REMARK                         _______ _______ _______ _____ _____    ______ ____
ROOT
ATOM      1  O   HOH     1      39.549  23.268  -6.330  0.00  0.00    +0.000 OA
ENDROOT
TORSDOF 0
REMARK  Name = ../refined-set-2016/4ryd/4ryd_pocket.pdb
REMARK  255 active torsions:
REMARK  status: ('A' for Active; 'I' for Inactive)
REMARK    1  A    between atoms: _1  and  _3
REMARK    2  A    between atoms: _3  and  _4
REMARK    3  A    between atoms: _3  and  _6
REMARK    4  A    between atoms: _6  and  _7
REMARK    5  A    between atoms: _10  and  _12
REMARK    6  A    between atoms: _12  and  _13
REMARK    7  A    between atoms: _12  and  _15
REMARK    8  A    between atoms: _15  and  _16
REMARK    9  A    between atoms: _19  and  _21
REMARK   10  A    between atoms: _21  and  _22
REMARK   11  A    between atoms: _24  and  _26
REMARK   12  A    between atoms: _26  and  _27
REMARK   13  A    between atoms: _26  and  _29
REMARK   14  A    between atoms: _29  and  _30
REMARK   15  A    between atoms: _35  and  _37
REMARK   16  A    between atoms: _37  and  _38
REMARK   17  A    between atoms: _37  and  _40
REMARK   18  A    between atoms: _40  and  _41
REMARK   19  A    between atoms: _41  and  _42
REMARK   20  A    between atoms: _42  and  _43
REMARK   21  A    between atoms: _52  and  _54
REMARK   22  A    between atoms: _54  and  _55
REMARK   23  A    between atoms: _54  and  _57
REMARK   24  A    between atoms: _57  and  _58
REMARK   25  A    between atoms: _61  and  _63
REMARK   26  A    between atoms: _63  and  _64
REMARK   27  A    between atoms: _63  and  _66
REMARK   28  A    between atoms: _66  and  _67
REMARK   29  A    between atoms: _72  and  _74
REMARK   30  A    between atoms: _74  and  _75
REMARK   31  A    between atoms: _74  and  _77
REMARK   32  A    between atoms: _77  and  _78
REMARK   33  A    between atoms: _81  and  _83
REMARK   34  A    between atoms: _83  and  _84
REMARK   35  A    between atoms: _83  and  _86
REMARK   36  A    between atoms: _86  and  _87
REMARK   37  A    between atoms: _92  and  _94
REMARK   38  A    between atoms: _94  and  _95
REMARK   39  A    between atoms: _94  and  _97
REMARK   40  A    between atoms: _97  and  _98
REMARK   41  A    between atoms: _98  and  _99
REMARK   42  A    between atoms: _99  and  _100
REMARK   43  A    between atoms: _109  and  _111
REMARK   44  A    between atoms: _111  and  _112
REMARK   45  A    between atoms: _111  and  _114
REMARK   46  A    between atoms: _114  and  _115
REMARK   47  A    between atoms: _120  and  _122
REMARK   48  A    between atoms: _122  and  _123
REMARK   49  A    between atoms: _125  and  _127
REMARK   50  A    between atoms: _127  and  _128
REMARK   51  A    between atoms: _127  and  _130
REMARK   52  A    between atoms: _130  and  _131
REMARK   53  A    between atoms: _134  and  _136
REMARK   54  A    between atoms: _136  and  _137
REMARK   55  A    between atoms: _136  and  _139
REMARK   56  A    between atoms: _141  and  _143
REMARK   57  A    between atoms: _143  and  _144
REMARK   58  A    between atoms: _143  and  _146
REMARK   59  A    between atoms: _146  and  _147
REMARK   60  A    between atoms: _147  and  _148
REMARK   61  A    between atoms: _148  and  _149
REMARK   62  A    between atoms: _158  and  _160
REMARK   63  A    between atoms: _160  and  _161
REMARK   64  A    between atoms: _160  and  _163
REMARK   65  A    between atoms: _163  and  _164
REMARK   66  A    between atoms: _164  and  _165
REMARK   67  A    between atoms: _167  and  _169
REMARK   68  A    between atoms: _169  and  _170
REMARK   69  A    between atoms: _169  and  _172
REMARK   70  A    between atoms: _172  and  _173
REMARK   71  A    between atoms: _176  and  _178
REMARK   72  A    between atoms: _178  and  _179
REMARK   73  A    between atoms: _178  and  _181
REMARK   74  A    between atoms: _181  and  _182
REMARK   75  A    between atoms: _185  and  _187
REMARK   76  A    between atoms: _187  and  _188
REMARK   77  A    between atoms: _190  and  _192
REMARK   78  A    between atoms: _192  and  _193
REMARK   79  A    between atoms: _192  and  _195
REMARK   80  A    between atoms: _195  and  _196
REMARK   81  A    between atoms: _196  and  _197
REMARK   82  A    between atoms: _200  and  _202
REMARK   83  A    between atoms: _202  and  _203
REMARK   84  A    between atoms: _202  and  _205
REMARK   85  A    between atoms: _208  and  _210
REMARK   86  A    between atoms: _210  and  _211
REMARK   87  A    between atoms: _210  and  _213
REMARK   88  A    between atoms: _213  and  _214
REMARK   89  A    between atoms: _217  and  _219
REMARK   90  A    between atoms: _219  and  _220
REMARK   91  A    between atoms: _219  and  _222
REMARK   92  A    between atoms: _222  and  _223
REMARK   93  A    between atoms: _226  and  _228
REMARK   94  A    between atoms: _228  and  _229
REMARK   95  A    between atoms: _232  and  _234
REMARK   96  A    between atoms: _234  and  _235
REMARK   97  A    between atoms: _234  and  _237
REMARK   98  A    between atoms: _240  and  _242
REMARK   99  A    between atoms: _242  and  _243
REMARK  100  A    between atoms: _242  and  _245
REMARK  101  A    between atoms: _245  and  _246
REMARK  102  A    between atoms: _246  and  _247
REMARK  103  A    between atoms: _250  and  _252
REMARK  104  A    between atoms: _252  and  _253
REMARK  105  A    between atoms: _256  and  _258
REMARK  106  A    between atoms: _258  and  _259
REMARK  107  A    between atoms: _262  and  _264
REMARK  108  A    between atoms: _264  and  _265
REMARK  109  A    between atoms: _264  and  _267
REMARK  110  A    between atoms: _267  and  _268
REMARK  111  A    between atoms: _270  and  _272
REMARK  112  A    between atoms: _272  and  _273
REMARK  113  A    between atoms: _272  and  _275
REMARK  114  A    between atoms: _275  and  _276
REMARK  115  A    between atoms: _286  and  _288
REMARK  116  A    between atoms: _288  and  _289
REMARK  117  A    between atoms: _292  and  _293
REMARK  118  A    between atoms: _298  and  _300
REMARK  119  A    between atoms: _300  and  _301
REMARK  120  A    between atoms: _300  and  _303
REMARK  121  A    between atoms: _303  and  _304
REMARK  122  A    between atoms: _304  and  _305
REMARK  123  A    between atoms: _308  and  _310
REMARK  124  A    between atoms: _310  and  _311
REMARK  125  A    between atoms: _310  and  _313
REMARK  126  A    between atoms: _313  and  _314
REMARK  127  A    between atoms: _317  and  _319
REMARK  128  A    between atoms: _319  and  _320
REMARK  129  A    between atoms: _319  and  _322
REMARK  130  A    between atoms: _322  and  _323
REMARK  131  A    between atoms: _326  and  _328
REMARK  132  A    between atoms: _328  and  _329
REMARK  133  A    between atoms: _328  and  _331
REMARK  134  A    between atoms: _331  and  _332
REMARK  135  A    between atoms: _335  and  _337
REMARK  136  A    between atoms: _337  and  _338
REMARK  137  A    between atoms: _337  and  _340
REMARK  138  A    between atoms: _343  and  _345
REMARK  139  A    between atoms: _345  and  _346
REMARK  140  A    between atoms: _345  and  _348
REMARK  141  A    between atoms: _348  and  _349
REMARK  142  A    between atoms: _352  and  _354
REMARK  143  A    between atoms: _354  and  _355
REMARK  144  A    between atoms: _358  and  _359
REMARK  145  A    between atoms: _364  and  _366
REMARK  146  A    between atoms: _366  and  _367
REMARK  147  A    between atoms: _370  and  _372
REMARK  148  A    between atoms: _372  and  _373
REMARK  149  A    between atoms: _372  and  _375
REMARK  150  A    between atoms: _375  and  _376
REMARK  151  A    between atoms: _376  and  _377
REMARK  152  A    between atoms: _377  and  _378
REMARK  153  A    between atoms: _387  and  _389
REMARK  154  A    between atoms: _389  and  _390
REMARK  155  A    between atoms: _389  and  _392
REMARK  156  A    between atoms: _392  and  _393
REMARK  157  A    between atoms: _396  and  _398
REMARK  158  A    between atoms: _398  and  _399
REMARK  159  A    between atoms: _402  and  _404
REMARK  160  A    between atoms: _404  and  _405
REMARK  161  A    between atoms: _404  and  _407
REMARK  162  A    between atoms: _407  and  _408
REMARK  163  A    between atoms: _408  and  _409
REMARK  164  A    between atoms: _412  and  _414
REMARK  165  A    between atoms: _414  and  _415
REMARK  166  A    between atoms: _414  and  _417
REMARK  167  A    between atoms: _417  and  _418
REMARK  168  A    between atoms: _428  and  _430
REMARK  169  A    between atoms: _430  and  _431
REMARK  170  A    between atoms: _434  and  _436
REMARK  171  A    between atoms: _436  and  _437
REMARK  172  A    between atoms: _436  and  _439
REMARK  173  A    between atoms: _439  and  _440
REMARK  174  A    between atoms: _442  and  _444
REMARK  175  A    between atoms: _444  and  _445
REMARK  176  A    between atoms: _447  and  _449
REMARK  177  A    between atoms: _449  and  _450
REMARK  178  A    between atoms: _449  and  _452
REMARK  179  A    between atoms: _452  and  _453
REMARK  180  A    between atoms: _458  and  _460
REMARK  181  A    between atoms: _460  and  _461
REMARK  182  A    between atoms: _463  and  _465
REMARK  183  A    between atoms: _465  and  _466
REMARK  184  A    between atoms: _465  and  _468
REMARK  185  A    between atoms: _468  and  _469
REMARK  186  A    between atoms: _469  and  _471
REMARK  187  A    between atoms: _471  and  CA_629
REMARK  188  A    between atoms: _472  and  _474
REMARK  189  A    between atoms: _474  and  _475
REMARK  190  A    between atoms: _474  and  _477
REMARK  191  A    between atoms: _477  and  _478
REMARK  192  A    between atoms: _480  and  _482
REMARK  193  A    between atoms: _482  and  _483
REMARK  194  A    between atoms: _482  and  _485
REMARK  195  A    between atoms: _487  and  _489
REMARK  196  A    between atoms: _489  and  _490
REMARK  197  A    between atoms: _489  and  _492
REMARK  198  A    between atoms: _494  and  _496
REMARK  199  A    between atoms: _496  and  _497
REMARK  200  A    between atoms: _496  and  _499
REMARK  201  A    between atoms: _499  and  _500
REMARK  202  A    between atoms: _503  and  _505
REMARK  203  A    between atoms: _505  and  _506
REMARK  204  A    between atoms: _508  and  _510
REMARK  205  A    between atoms: _510  and  _511
REMARK  206  A    between atoms: _510  and  _513
REMARK  207  A    between atoms: _513  and  _514
REMARK  208  A    between atoms: _519  and  _520
REMARK  209  A    between atoms: _522  and  _524
REMARK  210  A    between atoms: _524  and  _525
REMARK  211  A    between atoms: _524  and  _527
REMARK  212  A    between atoms: _527  and  _528
REMARK  213  A    between atoms: _531  and  _533
REMARK  214  A    between atoms: _533  and  _534
REMARK  215  A    between atoms: _533  and  _536
REMARK  216  A    between atoms: _536  and  _537
REMARK  217  A    between atoms: _542  and  _544
REMARK  218  A    between atoms: _544  and  _545
REMARK  219  A    between atoms: _544  and  _547
REMARK  220  A    between atoms: _547  and  _548
REMARK  221  A    between atoms: _551  and  _553
REMARK  222  A    between atoms: _553  and  _554
REMARK  223  A    between atoms: _553  and  _556
REMARK  224  A    between atoms: _556  and  _557
REMARK  225  A    between atoms: _559  and  _561
REMARK  226  A    between atoms: _561  and  _562
REMARK  227  A    between atoms: _561  and  _564
REMARK  228  A    between atoms: _564  and  _565
REMARK  229  A    between atoms: _568  and  _570
REMARK  230  A    between atoms: _570  and  _571
REMARK  231  A    between atoms: _570  and  _573
REMARK  232  A    between atoms: _573  and  _574
REMARK  233  A    between atoms: _574  and  _575
REMARK  234  A    between atoms: _578  and  _580
REMARK  235  A    between atoms: _580  and  _581
REMARK  236  A    between atoms: _580  and  _583
REMARK  237  A    between atoms: _583  and  _584
REMARK  238  A    between atoms: _587  and  _589
REMARK  239  A    between atoms: _589  and  _590
REMARK  240  A    between atoms: _592  and  _594
REMARK  241  A    between atoms: _594  and  _595
REMARK  242  A    between atoms: _594  and  _597
REMARK  243  A    between atoms: _597  and  _598
REMARK  244  A    between atoms: _601  and  _603
REMARK  245  A    between atoms: _603  and  _604
REMARK  246  A    between atoms: _603  and  _606
REMARK  247  A    between atoms: _606  and  _607
REMARK  248  A    between atoms: _609  and  _611
REMARK  249  A    between atoms: _611  and  _612
REMARK  250  A    between atoms: _615  and  _617
REMARK  251  A    between atoms: _617  and  _618
REMARK  252  A    between atoms: _617  and  _620
REMARK  253  A    between atoms: _620  and  _621
REMARK  254  A    between atoms: _623  and  _625
REMARK  255  A    between atoms: _625  and  _626
REMARK                            x       y       z     vdW  Elec       q    Type
REMARK                         _______ _______ _______ _____ _____    ______ ____
ROOT
ATOM      1  O   HOH     1      39.566  18.147  -3.806  0.00  0.00    +0.000 OA
ENDROOT
TORSDOF 0
REMARK  Name = ../refined-set-2016/4ryd/4ryd_pocket.pdb
REMARK  255 active torsions:
REMARK  status: ('A' for Active; 'I' for Inactive)
REMARK    1  A    between atoms: _1  and  _3
REMARK    2  A    between atoms: _3  and  _4
REMARK    3  A    between atoms: _3  and  _6
REMARK    4  A    between atoms: _6  and  _7
REMARK    5  A    between atoms: _10  and  _12
REMARK    6  A    between atoms: _12  and  _13
REMARK    7  A    between atoms: _12  and  _15
REMARK    8  A    between atoms: _15  and  _16
REMARK    9  A    between atoms: _19  and  _21
REMARK   10  A    between atoms: _21  and  _22
REMARK   11  A    between atoms: _24  and  _26
REMARK   12  A    between atoms: _26  and  _27
REMARK   13  A    between atoms: _26  and  _29
REMARK   14  A    between atoms: _29  and  _30
REMARK   15  A    between atoms: _35  and  _37
REMARK   16  A    between atoms: _37  and  _38
REMARK   17  A    between atoms: _37  and  _40
REMARK   18  A    between atoms: _40  and  _41
REMARK   19  A    between atoms: _41  and  _42
REMARK   20  A    between atoms: _42  and  _43
REMARK   21  A    between atoms: _52  and  _54
REMARK   22  A    between atoms: _54  and  _55
REMARK   23  A    between atoms: _54  and  _57
REMARK   24  A    between atoms: _57  and  _58
REMARK   25  A    between atoms: _61  and  _63
REMARK   26  A    between atoms: _63  and  _64
REMARK   27  A    between atoms: _63  and  _66
REMARK   28  A    between atoms: _66  and  _67
REMARK   29  A    between atoms: _72  and  _74
REMARK   30  A    between atoms: _74  and  _75
REMARK   31  A    between atoms: _74  and  _77
REMARK   32  A    between atoms: _77  and  _78
REMARK   33  A    between atoms: _81  and  _83
REMARK   34  A    between atoms: _83  and  _84
REMARK   35  A    between atoms: _83  and  _86
REMARK   36  A    between atoms: _86  and  _87
REMARK   37  A    between atoms: _92  and  _94
REMARK   38  A    between atoms: _94  and  _95
REMARK   39  A    between atoms: _94  and  _97
REMARK   40  A    between atoms: _97  and  _98
REMARK   41  A    between atoms: _98  and  _99
REMARK   42  A    between atoms: _99  and  _100
REMARK   43  A    between atoms: _109  and  _111
REMARK   44  A    between atoms: _111  and  _112
REMARK   45  A    between atoms: _111  and  _114
REMARK   46  A    between atoms: _114  and  _115
REMARK   47  A    between atoms: _120  and  _122
REMARK   48  A    between atoms: _122  and  _123
REMARK   49  A    between atoms: _125  and  _127
REMARK   50  A    between atoms: _127  and  _128
REMARK   51  A    between atoms: _127  and  _130
REMARK   52  A    between atoms: _130  and  _131
REMARK   53  A    between atoms: _134  and  _136
REMARK   54  A    between atoms: _136  and  _137
REMARK   55  A    between atoms: _136  and  _139
REMARK   56  A    between atoms: _141  and  _143
REMARK   57  A    between atoms: _143  and  _144
REMARK   58  A    between atoms: _143  and  _146
REMARK   59  A    between atoms: _146  and  _147
REMARK   60  A    between atoms: _147  and  _148
REMARK   61  A    between atoms: _148  and  _149
REMARK   62  A    between atoms: _158  and  _160
REMARK   63  A    between atoms: _160  and  _161
REMARK   64  A    between atoms: _160  and  _163
REMARK   65  A    between atoms: _163  and  _164
REMARK   66  A    between atoms: _164  and  _165
REMARK   67  A    between atoms: _167  and  _169
REMARK   68  A    between atoms: _169  and  _170
REMARK   69  A    between atoms: _169  and  _172
REMARK   70  A    between atoms: _172  and  _173
REMARK   71  A    between atoms: _176  and  _178
REMARK   72  A    between atoms: _178  and  _179
REMARK   73  A    between atoms: _178  and  _181
REMARK   74  A    between atoms: _181  and  _182
REMARK   75  A    between atoms: _185  and  _187
REMARK   76  A    between atoms: _187  and  _188
REMARK   77  A    between atoms: _190  and  _192
REMARK   78  A    between atoms: _192  and  _193
REMARK   79  A    between atoms: _192  and  _195
REMARK   80  A    between atoms: _195  and  _196
REMARK   81  A    between atoms: _196  and  _197
REMARK   82  A    between atoms: _200  and  _202
REMARK   83  A    between atoms: _202  and  _203
REMARK   84  A    between atoms: _202  and  _205
REMARK   85  A    between atoms: _208  and  _210
REMARK   86  A    between atoms: _210  and  _211
REMARK   87  A    between atoms: _210  and  _213
REMARK   88  A    between atoms: _213  and  _214
REMARK   89  A    between atoms: _217  and  _219
REMARK   90  A    between atoms: _219  and  _220
REMARK   91  A    between atoms: _219  and  _222
REMARK   92  A    between atoms: _222  and  _223
REMARK   93  A    between atoms: _226  and  _228
REMARK   94  A    between atoms: _228  and  _229
REMARK   95  A    between atoms: _232  and  _234
REMARK   96  A    between atoms: _234  and  _235
REMARK   97  A    between atoms: _234  and  _237
REMARK   98  A    between atoms: _240  and  _242
REMARK   99  A    between atoms: _242  and  _243
REMARK  100  A    between atoms: _242  and  _245
REMARK  101  A    between atoms: _245  and  _246
REMARK  102  A    between atoms: _246  and  _247
REMARK  103  A    between atoms: _250  and  _252
REMARK  104  A    between atoms: _252  and  _253
REMARK  105  A    between atoms: _256  and  _258
REMARK  106  A    between atoms: _258  and  _259
REMARK  107  A    between atoms: _262  and  _264
REMARK  108  A    between atoms: _264  and  _265
REMARK  109  A    between atoms: _264  and  _267
REMARK  110  A    between atoms: _267  and  _268
REMARK  111  A    between atoms: _270  and  _272
REMARK  112  A    between atoms: _272  and  _273
REMARK  113  A    between atoms: _272  and  _275
REMARK  114  A    between atoms: _275  and  _276
REMARK  115  A    between atoms: _286  and  _288
REMARK  116  A    between atoms: _288  and  _289
REMARK  117  A    between atoms: _292  and  _293
REMARK  118  A    between atoms: _298  and  _300
REMARK  119  A    between atoms: _300  and  _301
REMARK  120  A    between atoms: _300  and  _303
REMARK  121  A    between atoms: _303  and  _304
REMARK  122  A    between atoms: _304  and  _305
REMARK  123  A    between atoms: _308  and  _310
REMARK  124  A    between atoms: _310  and  _311
REMARK  125  A    between atoms: _310  and  _313
REMARK  126  A    between atoms: _313  and  _314
REMARK  127  A    between atoms: _317  and  _319
REMARK  128  A    between atoms: _319  and  _320
REMARK  129  A    between atoms: _319  and  _322
REMARK  130  A    between atoms: _322  and  _323
REMARK  131  A    between atoms: _326  and  _328
REMARK  132  A    between atoms: _328  and  _329
REMARK  133  A    between atoms: _328  and  _331
REMARK  134  A    between atoms: _331  and  _332
REMARK  135  A    between atoms: _335  and  _337
REMARK  136  A    between atoms: _337  and  _338
REMARK  137  A    between atoms: _337  and  _340
REMARK  138  A    between atoms: _343  and  _345
REMARK  139  A    between atoms: _345  and  _346
REMARK  140  A    between atoms: _345  and  _348
REMARK  141  A    between atoms: _348  and  _349
REMARK  142  A    between atoms: _352  and  _354
REMARK  143  A    between atoms: _354  and  _355
REMARK  144  A    between atoms: _358  and  _359
REMARK  145  A    between atoms: _364  and  _366
REMARK  146  A    between atoms: _366  and  _367
REMARK  147  A    between atoms: _370  and  _372
REMARK  148  A    between atoms: _372  and  _373
REMARK  149  A    between atoms: _372  and  _375
REMARK  150  A    between atoms: _375  and  _376
REMARK  151  A    between atoms: _376  and  _377
REMARK  152  A    between atoms: _377  and  _378
REMARK  153  A    between atoms: _387  and  _389
REMARK  154  A    between atoms: _389  and  _390
REMARK  155  A    between atoms: _389  and  _392
REMARK  156  A    between atoms: _392  and  _393
REMARK  157  A    between atoms: _396  and  _398
REMARK  158  A    between atoms: _398  and  _399
REMARK  159  A    between atoms: _402  and  _404
REMARK  160  A    between atoms: _404  and  _405
REMARK  161  A    between atoms: _404  and  _407
REMARK  162  A    between atoms: _407  and  _408
REMARK  163  A    between atoms: _408  and  _409
REMARK  164  A    between atoms: _412  and  _414
REMARK  165  A    between atoms: _414  and  _415
REMARK  166  A    between atoms: _414  and  _417
REMARK  167  A    between atoms: _417  and  _418
REMARK  168  A    between atoms: _428  and  _430
REMARK  169  A    between atoms: _430  and  _431
REMARK  170  A    between atoms: _434  and  _436
REMARK  171  A    between atoms: _436  and  _437
REMARK  172  A    between atoms: _436  and  _439
REMARK  173  A    between atoms: _439  and  _440
REMARK  174  A    between atoms: _442  and  _444
REMARK  175  A    between atoms: _444  and  _445
REMARK  176  A    between atoms: _447  and  _449
REMARK  177  A    between atoms: _449  and  _450
REMARK  178  A    between atoms: _449  and  _452
REMARK  179  A    between atoms: _452  and  _453
REMARK  180  A    between atoms: _458  and  _460
REMARK  181  A    between atoms: _460  and  _461
REMARK  182  A    between atoms: _463  and  _465
REMARK  183  A    between atoms: _465  and  _466
REMARK  184  A    between atoms: _465  and  _468
REMARK  185  A    between atoms: _468  and  _469
REMARK  186  A    between atoms: _469  and  _471
REMARK  187  A    between atoms: _471  and  CA_629
REMARK  188  A    between atoms: _472  and  _474
REMARK  189  A    between atoms: _474  and  _475
REMARK  190  A    between atoms: _474  and  _477
REMARK  191  A    between atoms: _477  and  _478
REMARK  192  A    between atoms: _480  and  _482
REMARK  193  A    between atoms: _482  and  _483
REMARK  194  A    between atoms: _482  and  _485
REMARK  195  A    between atoms: _487  and  _489
REMARK  196  A    between atoms: _489  and  _490
REMARK  197  A    between atoms: _489  and  _492
REMARK  198  A    between atoms: _494  and  _496
REMARK  199  A    between atoms: _496  and  _497
REMARK  200  A    between atoms: _496  and  _499
REMARK  201  A    between atoms: _499  and  _500
REMARK  202  A    between atoms: _503  and  _505
REMARK  203  A    between atoms: _505  and  _506
REMARK  204  A    between atoms: _508  and  _510
REMARK  205  A    between atoms: _510  and  _511
REMARK  206  A    between atoms: _510  and  _513
REMARK  207  A    between atoms: _513  and  _514
REMARK  208  A    between atoms: _519  and  _520
REMARK  209  A    between atoms: _522  and  _524
REMARK  210  A    between atoms: _524  and  _525
REMARK  211  A    between atoms: _524  and  _527
REMARK  212  A    between atoms: _527  and  _528
REMARK  213  A    between atoms: _531  and  _533
REMARK  214  A    between atoms: _533  and  _534
REMARK  215  A    between atoms: _533  and  _536
REMARK  216  A    between atoms: _536  and  _537
REMARK  217  A    between atoms: _542  and  _544
REMARK  218  A    between atoms: _544  and  _545
REMARK  219  A    between atoms: _544  and  _547
REMARK  220  A    between atoms: _547  and  _548
REMARK  221  A    between atoms: _551  and  _553
REMARK  222  A    between atoms: _553  and  _554
REMARK  223  A    between atoms: _553  and  _556
REMARK  224  A    between atoms: _556  and  _557
REMARK  225  A    between atoms: _559  and  _561
REMARK  226  A    between atoms: _561  and  _562
REMARK  227  A    between atoms: _561  and  _564
REMARK  228  A    between atoms: _564  and  _565
REMARK  229  A    between atoms: _568  and  _570
REMARK  230  A    between atoms: _570  and  _571
REMARK  231  A    between atoms: _570  and  _573
REMARK  232  A    between atoms: _573  and  _574
REMARK  233  A    between atoms: _574  and  _575
REMARK  234  A    between atoms: _578  and  _580
REMARK  235  A    between atoms: _580  and  _581
REMARK  236  A    between atoms: _580  and  _583
REMARK  237  A    between atoms: _583  and  _584
REMARK  238  A    between atoms: _587  and  _589
REMARK  239  A    between atoms: _589  and  _590
REMARK  240  A    between atoms: _592  and  _594
REMARK  241  A    between atoms: _594  and  _595
REMARK  242  A    between atoms: _594  and  _597
REMARK  243  A    between atoms: _597  and  _598
REMARK  244  A    between atoms: _601  and  _603
REMARK  245  A    between atoms: _603  and  _604
REMARK  246  A    between atoms: _603  and  _606
REMARK  247  A    between atoms: _606  and  _607
REMARK  248  A    between atoms: _609  and  _611
REMARK  249  A    between atoms: _611  and  _612
REMARK  250  A    between atoms: _615  and  _617
REMARK  251  A    between atoms: _617  and  _618
REMARK  252  A    between atoms: _617  and  _620
REMARK  253  A    between atoms: _620  and  _621
REMARK  254  A    between atoms: _623  and  _625
REMARK  255  A    between atoms: _625  and  _626
REMARK                            x       y       z     vdW  Elec       q    Type
REMARK                         _______ _______ _______ _____ _____    ______ ____
ROOT
ATOM      1  O   HOH     1      32.181  35.107  -6.515  0.00  0.00    +0.000 OA
ENDROOT
TORSDOF 0
REMARK  Name = ../refined-set-2016/4ryd/4ryd_pocket.pdb
REMARK  255 active torsions:
REMARK  status: ('A' for Active; 'I' for Inactive)
REMARK    1  A    between atoms: _1  and  _3
REMARK    2  A    between atoms: _3  and  _4
REMARK    3  A    between atoms: _3  and  _6
REMARK    4  A    between atoms: _6  and  _7
REMARK    5  A    between atoms: _10  and  _12
REMARK    6  A    between atoms: _12  and  _13
REMARK    7  A    between atoms: _12  and  _15
REMARK    8  A    between atoms: _15  and  _16
REMARK    9  A    between atoms: _19  and  _21
REMARK   10  A    between atoms: _21  and  _22
REMARK   11  A    between atoms: _24  and  _26
REMARK   12  A    between atoms: _26  and  _27
REMARK   13  A    between atoms: _26  and  _29
REMARK   14  A    between atoms: _29  and  _30
REMARK   15  A    between atoms: _35  and  _37
REMARK   16  A    between atoms: _37  and  _38
REMARK   17  A    between atoms: _37  and  _40
REMARK   18  A    between atoms: _40  and  _41
REMARK   19  A    between atoms: _41  and  _42
REMARK   20  A    between atoms: _42  and  _43
REMARK   21  A    between atoms: _52  and  _54
REMARK   22  A    between atoms: _54  and  _55
REMARK   23  A    between atoms: _54  and  _57
REMARK   24  A    between atoms: _57  and  _58
REMARK   25  A    between atoms: _61  and  _63
REMARK   26  A    between atoms: _63  and  _64
REMARK   27  A    between atoms: _63  and  _66
REMARK   28  A    between atoms: _66  and  _67
REMARK   29  A    between atoms: _72  and  _74
REMARK   30  A    between atoms: _74  and  _75
REMARK   31  A    between atoms: _74  and  _77
REMARK   32  A    between atoms: _77  and  _78
REMARK   33  A    between atoms: _81  and  _83
REMARK   34  A    between atoms: _83  and  _84
REMARK   35  A    between atoms: _83  and  _86
REMARK   36  A    between atoms: _86  and  _87
REMARK   37  A    between atoms: _92  and  _94
REMARK   38  A    between atoms: _94  and  _95
REMARK   39  A    between atoms: _94  and  _97
REMARK   40  A    between atoms: _97  and  _98
REMARK   41  A    between atoms: _98  and  _99
REMARK   42  A    between atoms: _99  and  _100
REMARK   43  A    between atoms: _109  and  _111
REMARK   44  A    between atoms: _111  and  _112
REMARK   45  A    between atoms: _111  and  _114
REMARK   46  A    between atoms: _114  and  _115
REMARK   47  A    between atoms: _120  and  _122
REMARK   48  A    between atoms: _122  and  _123
REMARK   49  A    between atoms: _125  and  _127
REMARK   50  A    between atoms: _127  and  _128
REMARK   51  A    between atoms: _127  and  _130
REMARK   52  A    between atoms: _130  and  _131
REMARK   53  A    between atoms: _134  and  _136
REMARK   54  A    between atoms: _136  and  _137
REMARK   55  A    between atoms: _136  and  _139
REMARK   56  A    between atoms: _141  and  _143
REMARK   57  A    between atoms: _143  and  _144
REMARK   58  A    between atoms: _143  and  _146
REMARK   59  A    between atoms: _146  and  _147
REMARK   60  A    between atoms: _147  and  _148
REMARK   61  A    between atoms: _148  and  _149
REMARK   62  A    between atoms: _158  and  _160
REMARK   63  A    between atoms: _160  and  _161
REMARK   64  A    between atoms: _160  and  _163
REMARK   65  A    between atoms: _163  and  _164
REMARK   66  A    between atoms: _164  and  _165
REMARK   67  A    between atoms: _167  and  _169
REMARK   68  A    between atoms: _169  and  _170
REMARK   69  A    between atoms: _169  and  _172
REMARK   70  A    between atoms: _172  and  _173
REMARK   71  A    between atoms: _176  and  _178
REMARK   72  A    between atoms: _178  and  _179
REMARK   73  A    between atoms: _178  and  _181
REMARK   74  A    between atoms: _181  and  _182
REMARK   75  A    between atoms: _185  and  _187
REMARK   76  A    between atoms: _187  and  _188
REMARK   77  A    between atoms: _190  and  _192
REMARK   78  A    between atoms: _192  and  _193
REMARK   79  A    between atoms: _192  and  _195
REMARK   80  A    between atoms: _195  and  _196
REMARK   81  A    between atoms: _196  and  _197
REMARK   82  A    between atoms: _200  and  _202
REMARK   83  A    between atoms: _202  and  _203
REMARK   84  A    between atoms: _202  and  _205
REMARK   85  A    between atoms: _208  and  _210
REMARK   86  A    between atoms: _210  and  _211
REMARK   87  A    between atoms: _210  and  _213
REMARK   88  A    between atoms: _213  and  _214
REMARK   89  A    between atoms: _217  and  _219
REMARK   90  A    between atoms: _219  and  _220
REMARK   91  A    between atoms: _219  and  _222
REMARK   92  A    between atoms: _222  and  _223
REMARK   93  A    between atoms: _226  and  _228
REMARK   94  A    between atoms: _228  and  _229
REMARK   95  A    between atoms: _232  and  _234
REMARK   96  A    between atoms: _234  and  _235
REMARK   97  A    between atoms: _234  and  _237
REMARK   98  A    between atoms: _240  and  _242
REMARK   99  A    between atoms: _242  and  _243
REMARK  100  A    between atoms: _242  and  _245
REMARK  101  A    between atoms: _245  and  _246
REMARK  102  A    between atoms: _246  and  _247
REMARK  103  A    between atoms: _250  and  _252
REMARK  104  A    between atoms: _252  and  _253
REMARK  105  A    between atoms: _256  and  _258
REMARK  106  A    between atoms: _258  and  _259
REMARK  107  A    between atoms: _262  and  _264
REMARK  108  A    between atoms: _264  and  _265
REMARK  109  A    between atoms: _264  and  _267
REMARK  110  A    between atoms: _267  and  _268
REMARK  111  A    between atoms: _270  and  _272
REMARK  112  A    between atoms: _272  and  _273
REMARK  113  A    between atoms: _272  and  _275
REMARK  114  A    between atoms: _275  and  _276
REMARK  115  A    between atoms: _286  and  _288
REMARK  116  A    between atoms: _288  and  _289
REMARK  117  A    between atoms: _292  and  _293
REMARK  118  A    between atoms: _298  and  _300
REMARK  119  A    between atoms: _300  and  _301
REMARK  120  A    between atoms: _300  and  _303
REMARK  121  A    between atoms: _303  and  _304
REMARK  122  A    between atoms: _304  and  _305
REMARK  123  A    between atoms: _308  and  _310
REMARK  124  A    between atoms: _310  and  _311
REMARK  125  A    between atoms: _310  and  _313
REMARK  126  A    between atoms: _313  and  _314
REMARK  127  A    between atoms: _317  and  _319
REMARK  128  A    between atoms: _319  and  _320
REMARK  129  A    between atoms: _319  and  _322
REMARK  130  A    between atoms: _322  and  _323
REMARK  131  A    between atoms: _326  and  _328
REMARK  132  A    between atoms: _328  and  _329
REMARK  133  A    between atoms: _328  and  _331
REMARK  134  A    between atoms: _331  and  _332
REMARK  135  A    between atoms: _335  and  _337
REMARK  136  A    between atoms: _337  and  _338
REMARK  137  A    between atoms: _337  and  _340
REMARK  138  A    between atoms: _343  and  _345
REMARK  139  A    between atoms: _345  and  _346
REMARK  140  A    between atoms: _345  and  _348
REMARK  141  A    between atoms: _348  and  _349
REMARK  142  A    between atoms: _352  and  _354
REMARK  143  A    between atoms: _354  and  _355
REMARK  144  A    between atoms: _358  and  _359
REMARK  145  A    between atoms: _364  and  _366
REMARK  146  A    between atoms: _366  and  _367
REMARK  147  A    between atoms: _370  and  _372
REMARK  148  A    between atoms: _372  and  _373
REMARK  149  A    between atoms: _372  and  _375
REMARK  150  A    between atoms: _375  and  _376
REMARK  151  A    between atoms: _376  and  _377
REMARK  152  A    between atoms: _377  and  _378
REMARK  153  A    between atoms: _387  and  _389
REMARK  154  A    between atoms: _389  and  _390
REMARK  155  A    between atoms: _389  and  _392
REMARK  156  A    between atoms: _392  and  _393
REMARK  157  A    between atoms: _396  and  _398
REMARK  158  A    between atoms: _398  and  _399
REMARK  159  A    between atoms: _402  and  _404
REMARK  160  A    between atoms: _404  and  _405
REMARK  161  A    between atoms: _404  and  _407
REMARK  162  A    between atoms: _407  and  _408
REMARK  163  A    between atoms: _408  and  _409
REMARK  164  A    between atoms: _412  and  _414
REMARK  165  A    between atoms: _414  and  _415
REMARK  166  A    between atoms: _414  and  _417
REMARK  167  A    between atoms: _417  and  _418
REMARK  168  A    between atoms: _428  and  _430
REMARK  169  A    between atoms: _430  and  _431
REMARK  170  A    between atoms: _434  and  _436
REMARK  171  A    between atoms: _436  and  _437
REMARK  172  A    between atoms: _436  and  _439
REMARK  173  A    between atoms: _439  and  _440
REMARK  174  A    between atoms: _442  and  _444
REMARK  175  A    between atoms: _444  and  _445
REMARK  176  A    between atoms: _447  and  _449
REMARK  177  A    between atoms: _449  and  _450
REMARK  178  A    between atoms: _449  and  _452
REMARK  179  A    between atoms: _452  and  _453
REMARK  180  A    between atoms: _458  and  _460
REMARK  181  A    between atoms: _460  and  _461
REMARK  182  A    between atoms: _463  and  _465
REMARK  183  A    between atoms: _465  and  _466
REMARK  184  A    between atoms: _465  and  _468
REMARK  185  A    between atoms: _468  and  _469
REMARK  186  A    between atoms: _469  and  _471
REMARK  187  A    between atoms: _471  and  CA_629
REMARK  188  A    between atoms: _472  and  _474
REMARK  189  A    between atoms: _474  and  _475
REMARK  190  A    between atoms: _474  and  _477
REMARK  191  A    between atoms: _477  and  _478
REMARK  192  A    between atoms: _480  and  _482
REMARK  193  A    between atoms: _482  and  _483
REMARK  194  A    between atoms: _482  and  _485
REMARK  195  A    between atoms: _487  and  _489
REMARK  196  A    between atoms: _489  and  _490
REMARK  197  A    between atoms: _489  and  _492
REMARK  198  A    between atoms: _494  and  _496
REMARK  199  A    between atoms: _496  and  _497
REMARK  200  A    between atoms: _496  and  _499
REMARK  201  A    between atoms: _499  and  _500
REMARK  202  A    between atoms: _503  and  _505
REMARK  203  A    between atoms: _505  and  _506
REMARK  204  A    between atoms: _508  and  _510
REMARK  205  A    between atoms: _510  and  _511
REMARK  206  A    between atoms: _510  and  _513
REMARK  207  A    between atoms: _513  and  _514
REMARK  208  A    between atoms: _519  and  _520
REMARK  209  A    between atoms: _522  and  _524
REMARK  210  A    between atoms: _524  and  _525
REMARK  211  A    between atoms: _524  and  _527
REMARK  212  A    between atoms: _527  and  _528
REMARK  213  A    between atoms: _531  and  _533
REMARK  214  A    between atoms: _533  and  _534
REMARK  215  A    between atoms: _533  and  _536
REMARK  216  A    between atoms: _536  and  _537
REMARK  217  A    between atoms: _542  and  _544
REMARK  218  A    between atoms: _544  and  _545
REMARK  219  A    between atoms: _544  and  _547
REMARK  220  A    between atoms: _547  and  _548
REMARK  221  A    between atoms: _551  and  _553
REMARK  222  A    between atoms: _553  and  _554
REMARK  223  A    between atoms: _553  and  _556
REMARK  224  A    between atoms: _556  and  _557
REMARK  225  A    between atoms: _559  and  _561
REMARK  226  A    between atoms: _561  and  _562
REMARK  227  A    between atoms: _561  and  _564
REMARK  228  A    between atoms: _564  and  _565
REMARK  229  A    between atoms: _568  and  _570
REMARK  230  A    between atoms: _570  and  _571
REMARK  231  A    between atoms: _570  and  _573
REMARK  232  A    between atoms: _573  and  _574
REMARK  233  A    between atoms: _574  and  _575
REMARK  234  A    between atoms: _578  and  _580
REMARK  235  A    between atoms: _580  and  _581
REMARK  236  A    between atoms: _580  and  _583
REMARK  237  A    between atoms: _583  and  _584
REMARK  238  A    between atoms: _587  and  _589
REMARK  239  A    between atoms: _589  and  _590
REMARK  240  A    between atoms: _592  and  _594
REMARK  241  A    between atoms: _594  and  _595
REMARK  242  A    between atoms: _594  and  _597
REMARK  243  A    between atoms: _597  and  _598
REMARK  244  A    between atoms: _601  and  _603
REMARK  245  A    between atoms: _603  and  _604
REMARK  246  A    between atoms: _603  and  _606
REMARK  247  A    between atoms: _606  and  _607
REMARK  248  A    between atoms: _609  and  _611
REMARK  249  A    between atoms: _611  and  _612
REMARK  250  A    between atoms: _615  and  _617
REMARK  251  A    between atoms: _617  and  _618
REMARK  252  A    between atoms: _617  and  _620
REMARK  253  A    between atoms: _620  and  _621
REMARK  254  A    between atoms: _623  and  _625
REMARK  255  A    between atoms: _625  and  _626
REMARK                            x       y       z     vdW  Elec       q    Type
REMARK                         _______ _______ _______ _____ _____    ______ ____
ROOT
ATOM      1  O   HOH     1      21.669  32.473  -8.233  0.00  0.00    +0.000 OA
ENDROOT
TORSDOF 0
REMARK  Name = ../refined-set-2016/4ryd/4ryd_pocket.pdb
REMARK  255 active torsions:
REMARK  status: ('A' for Active; 'I' for Inactive)
REMARK    1  A    between atoms: _1  and  _3
REMARK    2  A    between atoms: _3  and  _4
REMARK    3  A    between atoms: _3  and  _6
REMARK    4  A    between atoms: _6  and  _7
REMARK    5  A    between atoms: _10  and  _12
REMARK    6  A    between atoms: _12  and  _13
REMARK    7  A    between atoms: _12  and  _15
REMARK    8  A    between atoms: _15  and  _16
REMARK    9  A    between atoms: _19  and  _21
REMARK   10  A    between atoms: _21  and  _22
REMARK   11  A    between atoms: _24  and  _26
REMARK   12  A    between atoms: _26  and  _27
REMARK   13  A    between atoms: _26  and  _29
REMARK   14  A    between atoms: _29  and  _30
REMARK   15  A    between atoms: _35  and  _37
REMARK   16  A    between atoms: _37  and  _38
REMARK   17  A    between atoms: _37  and  _40
REMARK   18  A    between atoms: _40  and  _41
REMARK   19  A    between atoms: _41  and  _42
REMARK   20  A    between atoms: _42  and  _43
REMARK   21  A    between atoms: _52  and  _54
REMARK   22  A    between atoms: _54  and  _55
REMARK   23  A    between atoms: _54  and  _57
REMARK   24  A    between atoms: _57  and  _58
REMARK   25  A    between atoms: _61  and  _63
REMARK   26  A    between atoms: _63  and  _64
REMARK   27  A    between atoms: _63  and  _66
REMARK   28  A    between atoms: _66  and  _67
REMARK   29  A    between atoms: _72  and  _74
REMARK   30  A    between atoms: _74  and  _75
REMARK   31  A    between atoms: _74  and  _77
REMARK   32  A    between atoms: _77  and  _78
REMARK   33  A    between atoms: _81  and  _83
REMARK   34  A    between atoms: _83  and  _84
REMARK   35  A    between atoms: _83  and  _86
REMARK   36  A    between atoms: _86  and  _87
REMARK   37  A    between atoms: _92  and  _94
REMARK   38  A    between atoms: _94  and  _95
REMARK   39  A    between atoms: _94  and  _97
REMARK   40  A    between atoms: _97  and  _98
REMARK   41  A    between atoms: _98  and  _99
REMARK   42  A    between atoms: _99  and  _100
REMARK   43  A    between atoms: _109  and  _111
REMARK   44  A    between atoms: _111  and  _112
REMARK   45  A    between atoms: _111  and  _114
REMARK   46  A    between atoms: _114  and  _115
REMARK   47  A    between atoms: _120  and  _122
REMARK   48  A    between atoms: _122  and  _123
REMARK   49  A    between atoms: _125  and  _127
REMARK   50  A    between atoms: _127  and  _128
REMARK   51  A    between atoms: _127  and  _130
REMARK   52  A    between atoms: _130  and  _131
REMARK   53  A    between atoms: _134  and  _136
REMARK   54  A    between atoms: _136  and  _137
REMARK   55  A    between atoms: _136  and  _139
REMARK   56  A    between atoms: _141  and  _143
REMARK   57  A    between atoms: _143  and  _144
REMARK   58  A    between atoms: _143  and  _146
REMARK   59  A    between atoms: _146  and  _147
REMARK   60  A    between atoms: _147  and  _148
REMARK   61  A    between atoms: _148  and  _149
REMARK   62  A    between atoms: _158  and  _160
REMARK   63  A    between atoms: _160  and  _161
REMARK   64  A    between atoms: _160  and  _163
REMARK   65  A    between atoms: _163  and  _164
REMARK   66  A    between atoms: _164  and  _165
REMARK   67  A    between atoms: _167  and  _169
REMARK   68  A    between atoms: _169  and  _170
REMARK   69  A    between atoms: _169  and  _172
REMARK   70  A    between atoms: _172  and  _173
REMARK   71  A    between atoms: _176  and  _178
REMARK   72  A    between atoms: _178  and  _179
REMARK   73  A    between atoms: _178  and  _181
REMARK   74  A    between atoms: _181  and  _182
REMARK   75  A    between atoms: _185  and  _187
REMARK   76  A    between atoms: _187  and  _188
REMARK   77  A    between atoms: _190  and  _192
REMARK   78  A    between atoms: _192  and  _193
REMARK   79  A    between atoms: _192  and  _195
REMARK   80  A    between atoms: _195  and  _196
REMARK   81  A    between atoms: _196  and  _197
REMARK   82  A    between atoms: _200  and  _202
REMARK   83  A    between atoms: _202  and  _203
REMARK   84  A    between atoms: _202  and  _205
REMARK   85  A    between atoms: _208  and  _210
REMARK   86  A    between atoms: _210  and  _211
REMARK   87  A    between atoms: _210  and  _213
REMARK   88  A    between atoms: _213  and  _214
REMARK   89  A    between atoms: _217  and  _219
REMARK   90  A    between atoms: _219  and  _220
REMARK   91  A    between atoms: _219  and  _222
REMARK   92  A    between atoms: _222  and  _223
REMARK   93  A    between atoms: _226  and  _228
REMARK   94  A    between atoms: _228  and  _229
REMARK   95  A    between atoms: _232  and  _234
REMARK   96  A    between atoms: _234  and  _235
REMARK   97  A    between atoms: _234  and  _237
REMARK   98  A    between atoms: _240  and  _242
REMARK   99  A    between atoms: _242  and  _243
REMARK  100  A    between atoms: _242  and  _245
REMARK  101  A    between atoms: _245  and  _246
REMARK  102  A    between atoms: _246  and  _247
REMARK  103  A    between atoms: _250  and  _252
REMARK  104  A    between atoms: _252  and  _253
REMARK  105  A    between atoms: _256  and  _258
REMARK  106  A    between atoms: _258  and  _259
REMARK  107  A    between atoms: _262  and  _264
REMARK  108  A    between atoms: _264  and  _265
REMARK  109  A    between atoms: _264  and  _267
REMARK  110  A    between atoms: _267  and  _268
REMARK  111  A    between atoms: _270  and  _272
REMARK  112  A    between atoms: _272  and  _273
REMARK  113  A    between atoms: _272  and  _275
REMARK  114  A    between atoms: _275  and  _276
REMARK  115  A    between atoms: _286  and  _288
REMARK  116  A    between atoms: _288  and  _289
REMARK  117  A    between atoms: _292  and  _293
REMARK  118  A    between atoms: _298  and  _300
REMARK  119  A    between atoms: _300  and  _301
REMARK  120  A    between atoms: _300  and  _303
REMARK  121  A    between atoms: _303  and  _304
REMARK  122  A    between atoms: _304  and  _305
REMARK  123  A    between atoms: _308  and  _310
REMARK  124  A    between atoms: _310  and  _311
REMARK  125  A    between atoms: _310  and  _313
REMARK  126  A    between atoms: _313  and  _314
REMARK  127  A    between atoms: _317  and  _319
REMARK  128  A    between atoms: _319  and  _320
REMARK  129  A    between atoms: _319  and  _322
REMARK  130  A    between atoms: _322  and  _323
REMARK  131  A    between atoms: _326  and  _328
REMARK  132  A    between atoms: _328  and  _329
REMARK  133  A    between atoms: _328  and  _331
REMARK  134  A    between atoms: _331  and  _332
REMARK  135  A    between atoms: _335  and  _337
REMARK  136  A    between atoms: _337  and  _338
REMARK  137  A    between atoms: _337  and  _340
REMARK  138  A    between atoms: _343  and  _345
REMARK  139  A    between atoms: _345  and  _346
REMARK  140  A    between atoms: _345  and  _348
REMARK  141  A    between atoms: _348  and  _349
REMARK  142  A    between atoms: _352  and  _354
REMARK  143  A    between atoms: _354  and  _355
REMARK  144  A    between atoms: _358  and  _359
REMARK  145  A    between atoms: _364  and  _366
REMARK  146  A    between atoms: _366  and  _367
REMARK  147  A    between atoms: _370  and  _372
REMARK  148  A    between atoms: _372  and  _373
REMARK  149  A    between atoms: _372  and  _375
REMARK  150  A    between atoms: _375  and  _376
REMARK  151  A    between atoms: _376  and  _377
REMARK  152  A    between atoms: _377  and  _378
REMARK  153  A    between atoms: _387  and  _389
REMARK  154  A    between atoms: _389  and  _390
REMARK  155  A    between atoms: _389  and  _392
REMARK  156  A    between atoms: _392  and  _393
REMARK  157  A    between atoms: _396  and  _398
REMARK  158  A    between atoms: _398  and  _399
REMARK  159  A    between atoms: _402  and  _404
REMARK  160  A    between atoms: _404  and  _405
REMARK  161  A    between atoms: _404  and  _407
REMARK  162  A    between atoms: _407  and  _408
REMARK  163  A    between atoms: _408  and  _409
REMARK  164  A    between atoms: _412  and  _414
REMARK  165  A    between atoms: _414  and  _415
REMARK  166  A    between atoms: _414  and  _417
REMARK  167  A    between atoms: _417  and  _418
REMARK  168  A    between atoms: _428  and  _430
REMARK  169  A    between atoms: _430  and  _431
REMARK  170  A    between atoms: _434  and  _436
REMARK  171  A    between atoms: _436  and  _437
REMARK  172  A    between atoms: _436  and  _439
REMARK  173  A    between atoms: _439  and  _440
REMARK  174  A    between atoms: _442  and  _444
REMARK  175  A    between atoms: _444  and  _445
REMARK  176  A    between atoms: _447  and  _449
REMARK  177  A    between atoms: _449  and  _450
REMARK  178  A    between atoms: _449  and  _452
REMARK  179  A    between atoms: _452  and  _453
REMARK  180  A    between atoms: _458  and  _460
REMARK  181  A    between atoms: _460  and  _461
REMARK  182  A    between atoms: _463  and  _465
REMARK  183  A    between atoms: _465  and  _466
REMARK  184  A    between atoms: _465  and  _468
REMARK  185  A    between atoms: _468  and  _469
REMARK  186  A    between atoms: _469  and  _471
REMARK  187  A    between atoms: _471  and  CA_629
REMARK  188  A    between atoms: _472  and  _474
REMARK  189  A    between atoms: _474  and  _475
REMARK  190  A    between atoms: _474  and  _477
REMARK  191  A    between atoms: _477  and  _478
REMARK  192  A    between atoms: _480  and  _482
REMARK  193  A    between atoms: _482  and  _483
REMARK  194  A    between atoms: _482  and  _485
REMARK  195  A    between atoms: _487  and  _489
REMARK  196  A    between atoms: _489  and  _490
REMARK  197  A    between atoms: _489  and  _492
REMARK  198  A    between atoms: _494  and  _496
REMARK  199  A    between atoms: _496  and  _497
REMARK  200  A    between atoms: _496  and  _499
REMARK  201  A    between atoms: _499  and  _500
REMARK  202  A    between atoms: _503  and  _505
REMARK  203  A    between atoms: _505  and  _506
REMARK  204  A    between atoms: _508  and  _510
REMARK  205  A    between atoms: _510  and  _511
REMARK  206  A    between atoms: _510  and  _513
REMARK  207  A    between atoms: _513  and  _514
REMARK  208  A    between atoms: _519  and  _520
REMARK  209  A    between atoms: _522  and  _524
REMARK  210  A    between atoms: _524  and  _525
REMARK  211  A    between atoms: _524  and  _527
REMARK  212  A    between atoms: _527  and  _528
REMARK  213  A    between atoms: _531  and  _533
REMARK  214  A    between atoms: _533  and  _534
REMARK  215  A    between atoms: _533  and  _536
REMARK  216  A    between atoms: _536  and  _537
REMARK  217  A    between atoms: _542  and  _544
REMARK  218  A    between atoms: _544  and  _545
REMARK  219  A    between atoms: _544  and  _547
REMARK  220  A    between atoms: _547  and  _548
REMARK  221  A    between atoms: _551  and  _553
REMARK  222  A    between atoms: _553  and  _554
REMARK  223  A    between atoms: _553  and  _556
REMARK  224  A    between atoms: _556  and  _557
REMARK  225  A    between atoms: _559  and  _561
REMARK  226  A    between atoms: _561  and  _562
REMARK  227  A    between atoms: _561  and  _564
REMARK  228  A    between atoms: _564  and  _565
REMARK  229  A    between atoms: _568  and  _570
REMARK  230  A    between atoms: _570  and  _571
REMARK  231  A    between atoms: _570  and  _573
REMARK  232  A    between atoms: _573  and  _574
REMARK  233  A    between atoms: _574  and  _575
REMARK  234  A    between atoms: _578  and  _580
REMARK  235  A    between atoms: _580  and  _581
REMARK  236  A    between atoms: _580  and  _583
REMARK  237  A    between atoms: _583  and  _584
REMARK  238  A    between atoms: _587  and  _589
REMARK  239  A    between atoms: _589  and  _590
REMARK  240  A    between atoms: _592  and  _594
REMARK  241  A    between atoms: _594  and  _595
REMARK  242  A    between atoms: _594  and  _597
REMARK  243  A    between atoms: _597  and  _598
REMARK  244  A    between atoms: _601  and  _603
REMARK  245  A    between atoms: _603  and  _604
REMARK  246  A    between atoms: _603  and  _606
REMARK  247  A    between atoms: _606  and  _607
REMARK  248  A    between atoms: _609  and  _611
REMARK  249  A    between atoms: _611  and  _612
REMARK  250  A    between atoms: _615  and  _617
REMARK  251  A    between atoms: _617  and  _618
REMARK  252  A    between atoms: _617  and  _620
REMARK  253  A    between atoms: _620  and  _621
REMARK  254  A    between atoms: _623  and  _625
REMARK  255  A    between atoms: _625  and  _626
REMARK                            x       y       z     vdW  Elec       q    Type
REMARK                         _______ _______ _______ _____ _____    ______ ____
ROOT
ATOM      1  O   HOH     1      28.848  24.062 -10.298  0.00  0.00    +0.000 OA
ENDROOT
TORSDOF 0
REMARK  Name = ../refined-set-2016/4ryd/4ryd_pocket.pdb
REMARK  255 active torsions:
REMARK  status: ('A' for Active; 'I' for Inactive)
REMARK    1  A    between atoms: _1  and  _3
REMARK    2  A    between atoms: _3  and  _4
REMARK    3  A    between atoms: _3  and  _6
REMARK    4  A    between atoms: _6  and  _7
REMARK    5  A    between atoms: _10  and  _12
REMARK    6  A    between atoms: _12  and  _13
REMARK    7  A    between atoms: _12  and  _15
REMARK    8  A    between atoms: _15  and  _16
REMARK    9  A    between atoms: _19  and  _21
REMARK   10  A    between atoms: _21  and  _22
REMARK   11  A    between atoms: _24  and  _26
REMARK   12  A    between atoms: _26  and  _27
REMARK   13  A    between atoms: _26  and  _29
REMARK   14  A    between atoms: _29  and  _30
REMARK   15  A    between atoms: _35  and  _37
REMARK   16  A    between atoms: _37  and  _38
REMARK   17  A    between atoms: _37  and  _40
REMARK   18  A    between atoms: _40  and  _41
REMARK   19  A    between atoms: _41  and  _42
REMARK   20  A    between atoms: _42  and  _43
REMARK   21  A    between atoms: _52  and  _54
REMARK   22  A    between atoms: _54  and  _55
REMARK   23  A    between atoms: _54  and  _57
REMARK   24  A    between atoms: _57  and  _58
REMARK   25  A    between atoms: _61  and  _63
REMARK   26  A    between atoms: _63  and  _64
REMARK   27  A    between atoms: _63  and  _66
REMARK   28  A    between atoms: _66  and  _67
REMARK   29  A    between atoms: _72  and  _74
REMARK   30  A    between atoms: _74  and  _75
REMARK   31  A    between atoms: _74  and  _77
REMARK   32  A    between atoms: _77  and  _78
REMARK   33  A    between atoms: _81  and  _83
REMARK   34  A    between atoms: _83  and  _84
REMARK   35  A    between atoms: _83  and  _86
REMARK   36  A    between atoms: _86  and  _87
REMARK   37  A    between atoms: _92  and  _94
REMARK   38  A    between atoms: _94  and  _95
REMARK   39  A    between atoms: _94  and  _97
REMARK   40  A    between atoms: _97  and  _98
REMARK   41  A    between atoms: _98  and  _99
REMARK   42  A    between atoms: _99  and  _100
REMARK   43  A    between atoms: _109  and  _111
REMARK   44  A    between atoms: _111  and  _112
REMARK   45  A    between atoms: _111  and  _114
REMARK   46  A    between atoms: _114  and  _115
REMARK   47  A    between atoms: _120  and  _122
REMARK   48  A    between atoms: _122  and  _123
REMARK   49  A    between atoms: _125  and  _127
REMARK   50  A    between atoms: _127  and  _128
REMARK   51  A    between atoms: _127  and  _130
REMARK   52  A    between atoms: _130  and  _131
REMARK   53  A    between atoms: _134  and  _136
REMARK   54  A    between atoms: _136  and  _137
REMARK   55  A    between atoms: _136  and  _139
REMARK   56  A    between atoms: _141  and  _143
REMARK   57  A    between atoms: _143  and  _144
REMARK   58  A    between atoms: _143  and  _146
REMARK   59  A    between atoms: _146  and  _147
REMARK   60  A    between atoms: _147  and  _148
REMARK   61  A    between atoms: _148  and  _149
REMARK   62  A    between atoms: _158  and  _160
REMARK   63  A    between atoms: _160  and  _161
REMARK   64  A    between atoms: _160  and  _163
REMARK   65  A    between atoms: _163  and  _164
REMARK   66  A    between atoms: _164  and  _165
REMARK   67  A    between atoms: _167  and  _169
REMARK   68  A    between atoms: _169  and  _170
REMARK   69  A    between atoms: _169  and  _172
REMARK   70  A    between atoms: _172  and  _173
REMARK   71  A    between atoms: _176  and  _178
REMARK   72  A    between atoms: _178  and  _179
REMARK   73  A    between atoms: _178  and  _181
REMARK   74  A    between atoms: _181  and  _182
REMARK   75  A    between atoms: _185  and  _187
REMARK   76  A    between atoms: _187  and  _188
REMARK   77  A    between atoms: _190  and  _192
REMARK   78  A    between atoms: _192  and  _193
REMARK   79  A    between atoms: _192  and  _195
REMARK   80  A    between atoms: _195  and  _196
REMARK   81  A    between atoms: _196  and  _197
REMARK   82  A    between atoms: _200  and  _202
REMARK   83  A    between atoms: _202  and  _203
REMARK   84  A    between atoms: _202  and  _205
REMARK   85  A    between atoms: _208  and  _210
REMARK   86  A    between atoms: _210  and  _211
REMARK   87  A    between atoms: _210  and  _213
REMARK   88  A    between atoms: _213  and  _214
REMARK   89  A    between atoms: _217  and  _219
REMARK   90  A    between atoms: _219  and  _220
REMARK   91  A    between atoms: _219  and  _222
REMARK   92  A    between atoms: _222  and  _223
REMARK   93  A    between atoms: _226  and  _228
REMARK   94  A    between atoms: _228  and  _229
REMARK   95  A    between atoms: _232  and  _234
REMARK   96  A    between atoms: _234  and  _235
REMARK   97  A    between atoms: _234  and  _237
REMARK   98  A    between atoms: _240  and  _242
REMARK   99  A    between atoms: _242  and  _243
REMARK  100  A    between atoms: _242  and  _245
REMARK  101  A    between atoms: _245  and  _246
REMARK  102  A    between atoms: _246  and  _247
REMARK  103  A    between atoms: _250  and  _252
REMARK  104  A    between atoms: _252  and  _253
REMARK  105  A    between atoms: _256  and  _258
REMARK  106  A    between atoms: _258  and  _259
REMARK  107  A    between atoms: _262  and  _264
REMARK  108  A    between atoms: _264  and  _265
REMARK  109  A    between atoms: _264  and  _267
REMARK  110  A    between atoms: _267  and  _268
REMARK  111  A    between atoms: _270  and  _272
REMARK  112  A    between atoms: _272  and  _273
REMARK  113  A    between atoms: _272  and  _275
REMARK  114  A    between atoms: _275  and  _276
REMARK  115  A    between atoms: _286  and  _288
REMARK  116  A    between atoms: _288  and  _289
REMARK  117  A    between atoms: _292  and  _293
REMARK  118  A    between atoms: _298  and  _300
REMARK  119  A    between atoms: _300  and  _301
REMARK  120  A    between atoms: _300  and  _303
REMARK  121  A    between atoms: _303  and  _304
REMARK  122  A    between atoms: _304  and  _305
REMARK  123  A    between atoms: _308  and  _310
REMARK  124  A    between atoms: _310  and  _311
REMARK  125  A    between atoms: _310  and  _313
REMARK  126  A    between atoms: _313  and  _314
REMARK  127  A    between atoms: _317  and  _319
REMARK  128  A    between atoms: _319  and  _320
REMARK  129  A    between atoms: _319  and  _322
REMARK  130  A    between atoms: _322  and  _323
REMARK  131  A    between atoms: _326  and  _328
REMARK  132  A    between atoms: _328  and  _329
REMARK  133  A    between atoms: _328  and  _331
REMARK  134  A    between atoms: _331  and  _332
REMARK  135  A    between atoms: _335  and  _337
REMARK  136  A    between atoms: _337  and  _338
REMARK  137  A    between atoms: _337  and  _340
REMARK  138  A    between atoms: _343  and  _345
REMARK  139  A    between atoms: _345  and  _346
REMARK  140  A    between atoms: _345  and  _348
REMARK  141  A    between atoms: _348  and  _349
REMARK  142  A    between atoms: _352  and  _354
REMARK  143  A    between atoms: _354  and  _355
REMARK  144  A    between atoms: _358  and  _359
REMARK  145  A    between atoms: _364  and  _366
REMARK  146  A    between atoms: _366  and  _367
REMARK  147  A    between atoms: _370  and  _372
REMARK  148  A    between atoms: _372  and  _373
REMARK  149  A    between atoms: _372  and  _375
REMARK  150  A    between atoms: _375  and  _376
REMARK  151  A    between atoms: _376  and  _377
REMARK  152  A    between atoms: _377  and  _378
REMARK  153  A    between atoms: _387  and  _389
REMARK  154  A    between atoms: _389  and  _390
REMARK  155  A    between atoms: _389  and  _392
REMARK  156  A    between atoms: _392  and  _393
REMARK  157  A    between atoms: _396  and  _398
REMARK  158  A    between atoms: _398  and  _399
REMARK  159  A    between atoms: _402  and  _404
REMARK  160  A    between atoms: _404  and  _405
REMARK  161  A    between atoms: _404  and  _407
REMARK  162  A    between atoms: _407  and  _408
REMARK  163  A    between atoms: _408  and  _409
REMARK  164  A    between atoms: _412  and  _414
REMARK  165  A    between atoms: _414  and  _415
REMARK  166  A    between atoms: _414  and  _417
REMARK  167  A    between atoms: _417  and  _418
REMARK  168  A    between atoms: _428  and  _430
REMARK  169  A    between atoms: _430  and  _431
REMARK  170  A    between atoms: _434  and  _436
REMARK  171  A    between atoms: _436  and  _437
REMARK  172  A    between atoms: _436  and  _439
REMARK  173  A    between atoms: _439  and  _440
REMARK  174  A    between atoms: _442  and  _444
REMARK  175  A    between atoms: _444  and  _445
REMARK  176  A    between atoms: _447  and  _449
REMARK  177  A    between atoms: _449  and  _450
REMARK  178  A    between atoms: _449  and  _452
REMARK  179  A    between atoms: _452  and  _453
REMARK  180  A    between atoms: _458  and  _460
REMARK  181  A    between atoms: _460  and  _461
REMARK  182  A    between atoms: _463  and  _465
REMARK  183  A    between atoms: _465  and  _466
REMARK  184  A    between atoms: _465  and  _468
REMARK  185  A    between atoms: _468  and  _469
REMARK  186  A    between atoms: _469  and  _471
REMARK  187  A    between atoms: _471  and  CA_629
REMARK  188  A    between atoms: _472  and  _474
REMARK  189  A    between atoms: _474  and  _475
REMARK  190  A    between atoms: _474  and  _477
REMARK  191  A    between atoms: _477  and  _478
REMARK  192  A    between atoms: _480  and  _482
REMARK  193  A    between atoms: _482  and  _483
REMARK  194  A    between atoms: _482  and  _485
REMARK  195  A    between atoms: _487  and  _489
REMARK  196  A    between atoms: _489  and  _490
REMARK  197  A    between atoms: _489  and  _492
REMARK  198  A    between atoms: _494  and  _496
REMARK  199  A    between atoms: _496  and  _497
REMARK  200  A    between atoms: _496  and  _499
REMARK  201  A    between atoms: _499  and  _500
REMARK  202  A    between atoms: _503  and  _505
REMARK  203  A    between atoms: _505  and  _506
REMARK  204  A    between atoms: _508  and  _510
REMARK  205  A    between atoms: _510  and  _511
REMARK  206  A    between atoms: _510  and  _513
REMARK  207  A    between atoms: _513  and  _514
REMARK  208  A    between atoms: _519  and  _520
REMARK  209  A    between atoms: _522  and  _524
REMARK  210  A    between atoms: _524  and  _525
REMARK  211  A    between atoms: _524  and  _527
REMARK  212  A    between atoms: _527  and  _528
REMARK  213  A    between atoms: _531  and  _533
REMARK  214  A    between atoms: _533  and  _534
REMARK  215  A    between atoms: _533  and  _536
REMARK  216  A    between atoms: _536  and  _537
REMARK  217  A    between atoms: _542  and  _544
REMARK  218  A    between atoms: _544  and  _545
REMARK  219  A    between atoms: _544  and  _547
REMARK  220  A    between atoms: _547  and  _548
REMARK  221  A    between atoms: _551  and  _553
REMARK  222  A    between atoms: _553  and  _554
REMARK  223  A    between atoms: _553  and  _556
REMARK  224  A    between atoms: _556  and  _557
REMARK  225  A    between atoms: _559  and  _561
REMARK  226  A    between atoms: _561  and  _562
REMARK  227  A    between atoms: _561  and  _564
REMARK  228  A    between atoms: _564  and  _565
REMARK  229  A    between atoms: _568  and  _570
REMARK  230  A    between atoms: _570  and  _571
REMARK  231  A    between atoms: _570  and  _573
REMARK  232  A    between atoms: _573  and  _574
REMARK  233  A    between atoms: _574  and  _575
REMARK  234  A    between atoms: _578  and  _580
REMARK  235  A    between atoms: _580  and  _581
REMARK  236  A    between atoms: _580  and  _583
REMARK  237  A    between atoms: _583  and  _584
REMARK  238  A    between atoms: _587  and  _589
REMARK  239  A    between atoms: _589  and  _590
REMARK  240  A    between atoms: _592  and  _594
REMARK  241  A    between atoms: _594  and  _595
REMARK  242  A    between atoms: _594  and  _597
REMARK  243  A    between atoms: _597  and  _598
REMARK  244  A    between atoms: _601  and  _603
REMARK  245  A    between atoms: _603  and  _604
REMARK  246  A    between atoms: _603  and  _606
REMARK  247  A    between atoms: _606  and  _607
REMARK  248  A    between atoms: _609  and  _611
REMARK  249  A    between atoms: _611  and  _612
REMARK  250  A    between atoms: _615  and  _617
REMARK  251  A    between atoms: _617  and  _618
REMARK  252  A    between atoms: _617  and  _620
REMARK  253  A    between atoms: _620  and  _621
REMARK  254  A    between atoms: _623  and  _625
REMARK  255  A    between atoms: _625  and  _626
REMARK                            x       y       z     vdW  Elec       q    Type
REMARK                         _______ _______ _______ _____ _____    ______ ____
ROOT
ATOM      1  O   HOH     1      27.963  34.564  -6.862  0.00  0.00    +0.000 OA
ENDROOT
TORSDOF 0
REMARK  Name = ../refined-set-2016/4ryd/4ryd_pocket.pdb
REMARK  255 active torsions:
REMARK  status: ('A' for Active; 'I' for Inactive)
REMARK    1  A    between atoms: _1  and  _3
REMARK    2  A    between atoms: _3  and  _4
REMARK    3  A    between atoms: _3  and  _6
REMARK    4  A    between atoms: _6  and  _7
REMARK    5  A    between atoms: _10  and  _12
REMARK    6  A    between atoms: _12  and  _13
REMARK    7  A    between atoms: _12  and  _15
REMARK    8  A    between atoms: _15  and  _16
REMARK    9  A    between atoms: _19  and  _21
REMARK   10  A    between atoms: _21  and  _22
REMARK   11  A    between atoms: _24  and  _26
REMARK   12  A    between atoms: _26  and  _27
REMARK   13  A    between atoms: _26  and  _29
REMARK   14  A    between atoms: _29  and  _30
REMARK   15  A    between atoms: _35  and  _37
REMARK   16  A    between atoms: _37  and  _38
REMARK   17  A    between atoms: _37  and  _40
REMARK   18  A    between atoms: _40  and  _41
REMARK   19  A    between atoms: _41  and  _42
REMARK   20  A    between atoms: _42  and  _43
REMARK   21  A    between atoms: _52  and  _54
REMARK   22  A    between atoms: _54  and  _55
REMARK   23  A    between atoms: _54  and  _57
REMARK   24  A    between atoms: _57  and  _58
REMARK   25  A    between atoms: _61  and  _63
REMARK   26  A    between atoms: _63  and  _64
REMARK   27  A    between atoms: _63  and  _66
REMARK   28  A    between atoms: _66  and  _67
REMARK   29  A    between atoms: _72  and  _74
REMARK   30  A    between atoms: _74  and  _75
REMARK   31  A    between atoms: _74  and  _77
REMARK   32  A    between atoms: _77  and  _78
REMARK   33  A    between atoms: _81  and  _83
REMARK   34  A    between atoms: _83  and  _84
REMARK   35  A    between atoms: _83  and  _86
REMARK   36  A    between atoms: _86  and  _87
REMARK   37  A    between atoms: _92  and  _94
REMARK   38  A    between atoms: _94  and  _95
REMARK   39  A    between atoms: _94  and  _97
REMARK   40  A    between atoms: _97  and  _98
REMARK   41  A    between atoms: _98  and  _99
REMARK   42  A    between atoms: _99  and  _100
REMARK   43  A    between atoms: _109  and  _111
REMARK   44  A    between atoms: _111  and  _112
REMARK   45  A    between atoms: _111  and  _114
REMARK   46  A    between atoms: _114  and  _115
REMARK   47  A    between atoms: _120  and  _122
REMARK   48  A    between atoms: _122  and  _123
REMARK   49  A    between atoms: _125  and  _127
REMARK   50  A    between atoms: _127  and  _128
REMARK   51  A    between atoms: _127  and  _130
REMARK   52  A    between atoms: _130  and  _131
REMARK   53  A    between atoms: _134  and  _136
REMARK   54  A    between atoms: _136  and  _137
REMARK   55  A    between atoms: _136  and  _139
REMARK   56  A    between atoms: _141  and  _143
REMARK   57  A    between atoms: _143  and  _144
REMARK   58  A    between atoms: _143  and  _146
REMARK   59  A    between atoms: _146  and  _147
REMARK   60  A    between atoms: _147  and  _148
REMARK   61  A    between atoms: _148  and  _149
REMARK   62  A    between atoms: _158  and  _160
REMARK   63  A    between atoms: _160  and  _161
REMARK   64  A    between atoms: _160  and  _163
REMARK   65  A    between atoms: _163  and  _164
REMARK   66  A    between atoms: _164  and  _165
REMARK   67  A    between atoms: _167  and  _169
REMARK   68  A    between atoms: _169  and  _170
REMARK   69  A    between atoms: _169  and  _172
REMARK   70  A    between atoms: _172  and  _173
REMARK   71  A    between atoms: _176  and  _178
REMARK   72  A    between atoms: _178  and  _179
REMARK   73  A    between atoms: _178  and  _181
REMARK   74  A    between atoms: _181  and  _182
REMARK   75  A    between atoms: _185  and  _187
REMARK   76  A    between atoms: _187  and  _188
REMARK   77  A    between atoms: _190  and  _192
REMARK   78  A    between atoms: _192  and  _193
REMARK   79  A    between atoms: _192  and  _195
REMARK   80  A    between atoms: _195  and  _196
REMARK   81  A    between atoms: _196  and  _197
REMARK   82  A    between atoms: _200  and  _202
REMARK   83  A    between atoms: _202  and  _203
REMARK   84  A    between atoms: _202  and  _205
REMARK   85  A    between atoms: _208  and  _210
REMARK   86  A    between atoms: _210  and  _211
REMARK   87  A    between atoms: _210  and  _213
REMARK   88  A    between atoms: _213  and  _214
REMARK   89  A    between atoms: _217  and  _219
REMARK   90  A    between atoms: _219  and  _220
REMARK   91  A    between atoms: _219  and  _222
REMARK   92  A    between atoms: _222  and  _223
REMARK   93  A    between atoms: _226  and  _228
REMARK   94  A    between atoms: _228  and  _229
REMARK   95  A    between atoms: _232  and  _234
REMARK   96  A    between atoms: _234  and  _235
REMARK   97  A    between atoms: _234  and  _237
REMARK   98  A    between atoms: _240  and  _242
REMARK   99  A    between atoms: _242  and  _243
REMARK  100  A    between atoms: _242  and  _245
REMARK  101  A    between atoms: _245  and  _246
REMARK  102  A    between atoms: _246  and  _247
REMARK  103  A    between atoms: _250  and  _252
REMARK  104  A    between atoms: _252  and  _253
REMARK  105  A    between atoms: _256  and  _258
REMARK  106  A    between atoms: _258  and  _259
REMARK  107  A    between atoms: _262  and  _264
REMARK  108  A    between atoms: _264  and  _265
REMARK  109  A    between atoms: _264  and  _267
REMARK  110  A    between atoms: _267  and  _268
REMARK  111  A    between atoms: _270  and  _272
REMARK  112  A    between atoms: _272  and  _273
REMARK  113  A    between atoms: _272  and  _275
REMARK  114  A    between atoms: _275  and  _276
REMARK  115  A    between atoms: _286  and  _288
REMARK  116  A    between atoms: _288  and  _289
REMARK  117  A    between atoms: _292  and  _293
REMARK  118  A    between atoms: _298  and  _300
REMARK  119  A    between atoms: _300  and  _301
REMARK  120  A    between atoms: _300  and  _303
REMARK  121  A    between atoms: _303  and  _304
REMARK  122  A    between atoms: _304  and  _305
REMARK  123  A    between atoms: _308  and  _310
REMARK  124  A    between atoms: _310  and  _311
REMARK  125  A    between atoms: _310  and  _313
REMARK  126  A    between atoms: _313  and  _314
REMARK  127  A    between atoms: _317  and  _319
REMARK  128  A    between atoms: _319  and  _320
REMARK  129  A    between atoms: _319  and  _322
REMARK  130  A    between atoms: _322  and  _323
REMARK  131  A    between atoms: _326  and  _328
REMARK  132  A    between atoms: _328  and  _329
REMARK  133  A    between atoms: _328  and  _331
REMARK  134  A    between atoms: _331  and  _332
REMARK  135  A    between atoms: _335  and  _337
REMARK  136  A    between atoms: _337  and  _338
REMARK  137  A    between atoms: _337  and  _340
REMARK  138  A    between atoms: _343  and  _345
REMARK  139  A    between atoms: _345  and  _346
REMARK  140  A    between atoms: _345  and  _348
REMARK  141  A    between atoms: _348  and  _349
REMARK  142  A    between atoms: _352  and  _354
REMARK  143  A    between atoms: _354  and  _355
REMARK  144  A    between atoms: _358  and  _359
REMARK  145  A    between atoms: _364  and  _366
REMARK  146  A    between atoms: _366  and  _367
REMARK  147  A    between atoms: _370  and  _372
REMARK  148  A    between atoms: _372  and  _373
REMARK  149  A    between atoms: _372  and  _375
REMARK  150  A    between atoms: _375  and  _376
REMARK  151  A    between atoms: _376  and  _377
REMARK  152  A    between atoms: _377  and  _378
REMARK  153  A    between atoms: _387  and  _389
REMARK  154  A    between atoms: _389  and  _390
REMARK  155  A    between atoms: _389  and  _392
REMARK  156  A    between atoms: _392  and  _393
REMARK  157  A    between atoms: _396  and  _398
REMARK  158  A    between atoms: _398  and  _399
REMARK  159  A    between atoms: _402  and  _404
REMARK  160  A    between atoms: _404  and  _405
REMARK  161  A    between atoms: _404  and  _407
REMARK  162  A    between atoms: _407  and  _408
REMARK  163  A    between atoms: _408  and  _409
REMARK  164  A    between atoms: _412  and  _414
REMARK  165  A    between atoms: _414  and  _415
REMARK  166  A    between atoms: _414  and  _417
REMARK  167  A    between atoms: _417  and  _418
REMARK  168  A    between atoms: _428  and  _430
REMARK  169  A    between atoms: _430  and  _431
REMARK  170  A    between atoms: _434  and  _436
REMARK  171  A    between atoms: _436  and  _437
REMARK  172  A    between atoms: _436  and  _439
REMARK  173  A    between atoms: _439  and  _440
REMARK  174  A    between atoms: _442  and  _444
REMARK  175  A    between atoms: _444  and  _445
REMARK  176  A    between atoms: _447  and  _449
REMARK  177  A    between atoms: _449  and  _450
REMARK  178  A    between atoms: _449  and  _452
REMARK  179  A    between atoms: _452  and  _453
REMARK  180  A    between atoms: _458  and  _460
REMARK  181  A    between atoms: _460  and  _461
REMARK  182  A    between atoms: _463  and  _465
REMARK  183  A    between atoms: _465  and  _466
REMARK  184  A    between atoms: _465  and  _468
REMARK  185  A    between atoms: _468  and  _469
REMARK  186  A    between atoms: _469  and  _471
REMARK  187  A    between atoms: _471  and  CA_629
REMARK  188  A    between atoms: _472  and  _474
REMARK  189  A    between atoms: _474  and  _475
REMARK  190  A    between atoms: _474  and  _477
REMARK  191  A    between atoms: _477  and  _478
REMARK  192  A    between atoms: _480  and  _482
REMARK  193  A    between atoms: _482  and  _483
REMARK  194  A    between atoms: _482  and  _485
REMARK  195  A    between atoms: _487  and  _489
REMARK  196  A    between atoms: _489  and  _490
REMARK  197  A    between atoms: _489  and  _492
REMARK  198  A    between atoms: _494  and  _496
REMARK  199  A    between atoms: _496  and  _497
REMARK  200  A    between atoms: _496  and  _499
REMARK  201  A    between atoms: _499  and  _500
REMARK  202  A    between atoms: _503  and  _505
REMARK  203  A    between atoms: _505  and  _506
REMARK  204  A    between atoms: _508  and  _510
REMARK  205  A    between atoms: _510  and  _511
REMARK  206  A    between atoms: _510  and  _513
REMARK  207  A    between atoms: _513  and  _514
REMARK  208  A    between atoms: _519  and  _520
REMARK  209  A    between atoms: _522  and  _524
REMARK  210  A    between atoms: _524  and  _525
REMARK  211  A    between atoms: _524  and  _527
REMARK  212  A    between atoms: _527  and  _528
REMARK  213  A    between atoms: _531  and  _533
REMARK  214  A    between atoms: _533  and  _534
REMARK  215  A    between atoms: _533  and  _536
REMARK  216  A    between atoms: _536  and  _537
REMARK  217  A    between atoms: _542  and  _544
REMARK  218  A    between atoms: _544  and  _545
REMARK  219  A    between atoms: _544  and  _547
REMARK  220  A    between atoms: _547  and  _548
REMARK  221  A    between atoms: _551  and  _553
REMARK  222  A    between atoms: _553  and  _554
REMARK  223  A    between atoms: _553  and  _556
REMARK  224  A    between atoms: _556  and  _557
REMARK  225  A    between atoms: _559  and  _561
REMARK  226  A    between atoms: _561  and  _562
REMARK  227  A    between atoms: _561  and  _564
REMARK  228  A    between atoms: _564  and  _565
REMARK  229  A    between atoms: _568  and  _570
REMARK  230  A    between atoms: _570  and  _571
REMARK  231  A    between atoms: _570  and  _573
REMARK  232  A    between atoms: _573  and  _574
REMARK  233  A    between atoms: _574  and  _575
REMARK  234  A    between atoms: _578  and  _580
REMARK  235  A    between atoms: _580  and  _581
REMARK  236  A    between atoms: _580  and  _583
REMARK  237  A    between atoms: _583  and  _584
REMARK  238  A    between atoms: _587  and  _589
REMARK  239  A    between atoms: _589  and  _590
REMARK  240  A    between atoms: _592  and  _594
REMARK  241  A    between atoms: _594  and  _595
REMARK  242  A    between atoms: _594  and  _597
REMARK  243  A    between atoms: _597  and  _598
REMARK  244  A    between atoms: _601  and  _603
REMARK  245  A    between atoms: _603  and  _604
REMARK  246  A    between atoms: _603  and  _606
REMARK  247  A    between atoms: _606  and  _607
REMARK  248  A    between atoms: _609  and  _611
REMARK  249  A    between atoms: _611  and  _612
REMARK  250  A    between atoms: _615  and  _617
REMARK  251  A    between atoms: _617  and  _618
REMARK  252  A    between atoms: _617  and  _620
REMARK  253  A    between atoms: _620  and  _621
REMARK  254  A    between atoms: _623  and  _625
REMARK  255  A    between atoms: _625  and  _626
REMARK                            x       y       z     vdW  Elec       q    Type
REMARK                         _______ _______ _______ _____ _____    ______ ____
ROOT
ATOM      1  O   HOH     1      29.952  33.103  -7.680  0.00  0.00    +0.000 OA
ENDROOT
TORSDOF 0
