REMARK  Name = ../refined-set-2016/2i3i/2i3i_pocket.pdb
REMARK  124 active torsions:
REMARK  status: ('A' for Active; 'I' for Inactive)
REMARK    1  A    between atoms: _1  and  _3
REMARK    2  A    between atoms: _3  and  _4
REMARK    3  A    between atoms: _3  and  _6
REMARK    4  A    between atoms: _9  and  _11
REMARK    5  A    between atoms: _11  and  _12
REMARK    6  A    between atoms: _11  and  _14
REMARK    7  A    between atoms: _14  and  _15
REMARK    8  A    between atoms: _18  and  _20
REMARK    9  A    between atoms: _20  and  _21
REMARK   10  A    between atoms: _20  and  _23
REMARK   11  A    between atoms: _23  and  _24
REMARK   12  A    between atoms: _30  and  _32
REMARK   13  A    between atoms: _32  and  _33
REMARK   14  A    between atoms: _32  and  _35
REMARK   15  A    between atoms: _35  and  _36
REMARK   16  A    between atoms: _42  and  _44
REMARK   17  A    between atoms: _44  and  _45
REMARK   18  A    between atoms: _44  and  _47
REMARK   19  A    between atoms: _47  and  _48
REMARK   20  A    between atoms: _53  and  _55
REMARK   21  A    between atoms: _55  and  _56
REMARK   22  A    between atoms: _55  and  _58
REMARK   23  A    between atoms: _58  and  _59
REMARK   24  A    between atoms: _62  and  _64
REMARK   25  A    between atoms: _64  and  _65
REMARK   26  A    between atoms: _64  and  _67
REMARK   27  A    between atoms: _67  and  _68
REMARK   28  A    between atoms: _73  and  _75
REMARK   29  A    between atoms: _75  and  _76
REMARK   30  A    between atoms: _75  and  _78
REMARK   31  A    between atoms: _78  and  _79
REMARK   32  A    between atoms: _82  and  _84
REMARK   33  A    between atoms: _84  and  _85
REMARK   34  A    between atoms: _84  and  _87
REMARK   35  A    between atoms: _87  and  _88
REMARK   36  A    between atoms: _88  and  _89
REMARK   37  A    between atoms: _89  and  _90
REMARK   38  A    between atoms: _90  and  _91
REMARK   39  A    between atoms: _95  and  _97
REMARK   40  A    between atoms: _97  and  _98
REMARK   41  A    between atoms: _97  and  _100
REMARK   42  A    between atoms: _103  and  _105
REMARK   43  A    between atoms: _105  and  _106
REMARK   44  A    between atoms: _105  and  _108
REMARK   45  A    between atoms: _108  and  _109
REMARK   46  A    between atoms: _109  and  _110
REMARK   47  A    between atoms: _110  and  _111
REMARK   48  A    between atoms: _120  and  _122
REMARK   49  A    between atoms: _122  and  _123
REMARK   50  A    between atoms: _122  and  _125
REMARK   51  A    between atoms: _127  and  _129
REMARK   52  A    between atoms: _129  and  _130
REMARK   53  A    between atoms: _129  and  _132
REMARK   54  A    between atoms: _132  and  _133
REMARK   55  A    between atoms: _138  and  _139
REMARK   56  A    between atoms: _141  and  _143
REMARK   57  A    between atoms: _143  and  _144
REMARK   58  A    between atoms: _146  and  _148
REMARK   59  A    between atoms: _148  and  _149
REMARK   60  A    between atoms: _151  and  _153
REMARK   61  A    between atoms: _153  and  _154
REMARK   62  A    between atoms: _153  and  _156
REMARK   63  A    between atoms: _156  and  _157
REMARK   64  A    between atoms: _160  and  _162
REMARK   65  A    between atoms: _162  and  _163
REMARK   66  A    between atoms: _162  and  _165
REMARK   67  A    between atoms: _165  and  _166
REMARK   68  A    between atoms: _166  and  _167
REMARK   69  A    between atoms: _172  and  _174
REMARK   70  A    between atoms: _174  and  _175
REMARK   71  A    between atoms: _174  and  _177
REMARK   72  A    between atoms: _177  and  _178
REMARK   73  A    between atoms: _180  and  _182
REMARK   74  A    between atoms: _182  and  _183
REMARK   75  A    between atoms: _182  and  _185
REMARK   76  A    between atoms: _185  and  _186
REMARK   77  A    between atoms: _196  and  _198
REMARK   78  A    between atoms: _198  and  _199
REMARK   79  A    between atoms: _198  and  _201
REMARK   80  A    between atoms: _201  and  _202
REMARK   81  A    between atoms: _202  and  _203
REMARK   82  A    between atoms: _203  and  _204
REMARK   83  A    between atoms: _204  and  _205
REMARK   84  A    between atoms: _209  and  _211
REMARK   85  A    between atoms: _211  and  _212
REMARK   86  A    between atoms: _211  and  _214
REMARK   87  A    between atoms: _214  and  _215
REMARK   88  A    between atoms: _215  and  _216
REMARK   89  A    between atoms: _216  and  _217
REMARK   90  A    between atoms: _226  and  _228
REMARK   91  A    between atoms: _228  and  _229
REMARK   92  A    between atoms: _231  and  _233
REMARK   93  A    between atoms: _233  and  _234
REMARK   94  A    between atoms: _233  and  _236
REMARK   95  A    between atoms: _236  and  _237
REMARK   96  A    between atoms: _240  and  _242
REMARK   97  A    between atoms: _242  and  _243
REMARK   98  A    between atoms: _242  and  _245
REMARK   99  A    between atoms: _245  and  _246
REMARK  100  A    between atoms: _250  and  _251
REMARK  101  A    between atoms: _256  and  _258
REMARK  102  A    between atoms: _258  and  _259
REMARK  103  A    between atoms: _258  and  _261
REMARK  104  A    between atoms: _261  and  _262
REMARK  105  A    between atoms: _262  and  _263
REMARK  106  A    between atoms: _266  and  _268
REMARK  107  A    between atoms: _268  and  _269
REMARK  108  A    between atoms: _268  and  _271
REMARK  109  A    between atoms: _271  and  _272
REMARK  110  A    between atoms: _277  and  _279
REMARK  111  A    between atoms: _279  and  _280
REMARK  112  A    between atoms: _279  and  _282
REMARK  113  A    between atoms: _282  and  _283
REMARK  114  A    between atoms: _283  and  _284
REMARK  115  A    between atoms: _284  and  _285
REMARK  116  A    between atoms: _285  and  _286
REMARK  117  A    between atoms: _290  and  _292
REMARK  118  A    between atoms: _292  and  _293
REMARK  119  A    between atoms: _292  and  _295
REMARK  120  A    between atoms: _295  and  _296
REMARK  121  A    between atoms: _306  and  _308
REMARK  122  A    between atoms: _308  and  _309
REMARK  123  A    between atoms: _308  and  _311
REMARK  124  A    between atoms: _311  and  _312
REMARK                            x       y       z     vdW  Elec       q    Type
REMARK                         _______ _______ _______ _____ _____    ______ ____
ROOT
ATOM      1  CA  VAL A   1      89.940  59.012  24.157  0.00  0.00    +0.133 C 
ENDROOT
BRANCH   1   2
ATOM      2  CB  VAL A   1      88.762  59.349  23.200  0.00  0.00    +0.023 C 
ATOM      3  CG2 VAL A   1      88.741  60.852  22.861  0.00  0.00    +0.002 C 
ATOM      4  CG1 VAL A   1      88.815  58.518  21.941  0.00  0.00    +0.002 C 
ENDBRANCH   1   2
BRANCH   1   5
ATOM      5  N   VAL A   1      90.083  57.578  24.363  0.00  0.00    -0.239 NA
ATOM      6  H   VAL A   1      89.470  57.116  25.065  0.00  0.00    +0.142 HD
ENDBRANCH   1   5
BRANCH   1   7
ATOM      7  C   VAL A   1      89.701  59.687  25.522  0.00  0.00    +0.224 C 
ATOM      8  O   VAL A   1      88.574  59.673  26.045  0.00  0.00    -0.287 OA
ENDBRANCH   1   7
TORSDOF 3
REMARK  Name = ../refined-set-2016/2i3i/2i3i_pocket.pdb
REMARK  124 active torsions:
REMARK  status: ('A' for Active; 'I' for Inactive)
REMARK    1  A    between atoms: _1  and  _3
REMARK    2  A    between atoms: _3  and  _4
REMARK    3  A    between atoms: _3  and  _6
REMARK    4  A    between atoms: _9  and  _11
REMARK    5  A    between atoms: _11  and  _12
REMARK    6  A    between atoms: _11  and  _14
REMARK    7  A    between atoms: _14  and  _15
REMARK    8  A    between atoms: _18  and  _20
REMARK    9  A    between atoms: _20  and  _21
REMARK   10  A    between atoms: _20  and  _23
REMARK   11  A    between atoms: _23  and  _24
REMARK   12  A    between atoms: _30  and  _32
REMARK   13  A    between atoms: _32  and  _33
REMARK   14  A    between atoms: _32  and  _35
REMARK   15  A    between atoms: _35  and  _36
REMARK   16  A    between atoms: _42  and  _44
REMARK   17  A    between atoms: _44  and  _45
REMARK   18  A    between atoms: _44  and  _47
REMARK   19  A    between atoms: _47  and  _48
REMARK   20  A    between atoms: _53  and  _55
REMARK   21  A    between atoms: _55  and  _56
REMARK   22  A    between atoms: _55  and  _58
REMARK   23  A    between atoms: _58  and  _59
REMARK   24  A    between atoms: _62  and  _64
REMARK   25  A    between atoms: _64  and  _65
REMARK   26  A    between atoms: _64  and  _67
REMARK   27  A    between atoms: _67  and  _68
REMARK   28  A    between atoms: _73  and  _75
REMARK   29  A    between atoms: _75  and  _76
REMARK   30  A    between atoms: _75  and  _78
REMARK   31  A    between atoms: _78  and  _79
REMARK   32  A    between atoms: _82  and  _84
REMARK   33  A    between atoms: _84  and  _85
REMARK   34  A    between atoms: _84  and  _87
REMARK   35  A    between atoms: _87  and  _88
REMARK   36  A    between atoms: _88  and  _89
REMARK   37  A    between atoms: _89  and  _90
REMARK   38  A    between atoms: _90  and  _91
REMARK   39  A    between atoms: _95  and  _97
REMARK   40  A    between atoms: _97  and  _98
REMARK   41  A    between atoms: _97  and  _100
REMARK   42  A    between atoms: _103  and  _105
REMARK   43  A    between atoms: _105  and  _106
REMARK   44  A    between atoms: _105  and  _108
REMARK   45  A    between atoms: _108  and  _109
REMARK   46  A    between atoms: _109  and  _110
REMARK   47  A    between atoms: _110  and  _111
REMARK   48  A    between atoms: _120  and  _122
REMARK   49  A    between atoms: _122  and  _123
REMARK   50  A    between atoms: _122  and  _125
REMARK   51  A    between atoms: _127  and  _129
REMARK   52  A    between atoms: _129  and  _130
REMARK   53  A    between atoms: _129  and  _132
REMARK   54  A    between atoms: _132  and  _133
REMARK   55  A    between atoms: _138  and  _139
REMARK   56  A    between atoms: _141  and  _143
REMARK   57  A    between atoms: _143  and  _144
REMARK   58  A    between atoms: _146  and  _148
REMARK   59  A    between atoms: _148  and  _149
REMARK   60  A    between atoms: _151  and  _153
REMARK   61  A    between atoms: _153  and  _154
REMARK   62  A    between atoms: _153  and  _156
REMARK   63  A    between atoms: _156  and  _157
REMARK   64  A    between atoms: _160  and  _162
REMARK   65  A    between atoms: _162  and  _163
REMARK   66  A    between atoms: _162  and  _165
REMARK   67  A    between atoms: _165  and  _166
REMARK   68  A    between atoms: _166  and  _167
REMARK   69  A    between atoms: _172  and  _174
REMARK   70  A    between atoms: _174  and  _175
REMARK   71  A    between atoms: _174  and  _177
REMARK   72  A    between atoms: _177  and  _178
REMARK   73  A    between atoms: _180  and  _182
REMARK   74  A    between atoms: _182  and  _183
REMARK   75  A    between atoms: _182  and  _185
REMARK   76  A    between atoms: _185  and  _186
REMARK   77  A    between atoms: _196  and  _198
REMARK   78  A    between atoms: _198  and  _199
REMARK   79  A    between atoms: _198  and  _201
REMARK   80  A    between atoms: _201  and  _202
REMARK   81  A    between atoms: _202  and  _203
REMARK   82  A    between atoms: _203  and  _204
REMARK   83  A    between atoms: _204  and  _205
REMARK   84  A    between atoms: _209  and  _211
REMARK   85  A    between atoms: _211  and  _212
REMARK   86  A    between atoms: _211  and  _214
REMARK   87  A    between atoms: _214  and  _215
REMARK   88  A    between atoms: _215  and  _216
REMARK   89  A    between atoms: _216  and  _217
REMARK   90  A    between atoms: _226  and  _228
REMARK   91  A    between atoms: _228  and  _229
REMARK   92  A    between atoms: _231  and  _233
REMARK   93  A    between atoms: _233  and  _234
REMARK   94  A    between atoms: _233  and  _236
REMARK   95  A    between atoms: _236  and  _237
REMARK   96  A    between atoms: _240  and  _242
REMARK   97  A    between atoms: _242  and  _243
REMARK   98  A    between atoms: _242  and  _245
REMARK   99  A    between atoms: _245  and  _246
REMARK  100  A    between atoms: _250  and  _251
REMARK  101  A    between atoms: _256  and  _258
REMARK  102  A    between atoms: _258  and  _259
REMARK  103  A    between atoms: _258  and  _261
REMARK  104  A    between atoms: _261  and  _262
REMARK  105  A    between atoms: _262  and  _263
REMARK  106  A    between atoms: _266  and  _268
REMARK  107  A    between atoms: _268  and  _269
REMARK  108  A    between atoms: _268  and  _271
REMARK  109  A    between atoms: _271  and  _272
REMARK  110  A    between atoms: _277  and  _279
REMARK  111  A    between atoms: _279  and  _280
REMARK  112  A    between atoms: _279  and  _282
REMARK  113  A    between atoms: _282  and  _283
REMARK  114  A    between atoms: _283  and  _284
REMARK  115  A    between atoms: _284  and  _285
REMARK  116  A    between atoms: _285  and  _286
REMARK  117  A    between atoms: _290  and  _292
REMARK  118  A    between atoms: _292  and  _293
REMARK  119  A    between atoms: _292  and  _295
REMARK  120  A    between atoms: _295  and  _296
REMARK  121  A    between atoms: _306  and  _308
REMARK  122  A    between atoms: _308  and  _309
REMARK  123  A    between atoms: _308  and  _311
REMARK  124  A    between atoms: _311  and  _312
REMARK                            x       y       z     vdW  Elec       q    Type
REMARK                         _______ _______ _______ _____ _____    ______ ____
ROOT
ATOM      1  CA  LEU A   1      87.496  65.984  25.424  0.00  0.00    +0.133 C 
ENDROOT
BRANCH   1   2
ATOM      2  N   LEU A   1      88.796  65.668  25.975  0.00  0.00    -0.239 NA
ATOM      3  H   LEU A   1      88.930  64.776  26.494  0.00  0.00    +0.142 HD
ENDBRANCH   1   2
BRANCH   1   4
ATOM      4  C   LEU A   1      86.941  67.243  26.090  0.00  0.00    +0.224 C 
ATOM      5  O   LEU A   1      86.502  68.167  25.413  0.00  0.00    -0.287 OA
ENDBRANCH   1   4
BRANCH   1   6
ATOM      6  CB  LEU A   1      86.534  64.813  25.578  0.00  0.00    +0.025 C 
BRANCH   6   7
ATOM      7  CG  LEU A   1      86.814  63.615  24.684  0.00  0.00    +0.002 C 
ATOM      8  CD2 LEU A   1      86.416  62.300  25.379  0.00  0.00    +0.000 C 
ATOM      9  CD1 LEU A   1      86.125  63.786  23.330  0.00  0.00    +0.000 C 
ENDBRANCH   6   7
ENDBRANCH   1   6
TORSDOF 4
REMARK  Name = ../refined-set-2016/2i3i/2i3i_pocket.pdb
REMARK  124 active torsions:
REMARK  status: ('A' for Active; 'I' for Inactive)
REMARK    1  A    between atoms: _1  and  _3
REMARK    2  A    between atoms: _3  and  _4
REMARK    3  A    between atoms: _3  and  _6
REMARK    4  A    between atoms: _9  and  _11
REMARK    5  A    between atoms: _11  and  _12
REMARK    6  A    between atoms: _11  and  _14
REMARK    7  A    between atoms: _14  and  _15
REMARK    8  A    between atoms: _18  and  _20
REMARK    9  A    between atoms: _20  and  _21
REMARK   10  A    between atoms: _20  and  _23
REMARK   11  A    between atoms: _23  and  _24
REMARK   12  A    between atoms: _30  and  _32
REMARK   13  A    between atoms: _32  and  _33
REMARK   14  A    between atoms: _32  and  _35
REMARK   15  A    between atoms: _35  and  _36
REMARK   16  A    between atoms: _42  and  _44
REMARK   17  A    between atoms: _44  and  _45
REMARK   18  A    between atoms: _44  and  _47
REMARK   19  A    between atoms: _47  and  _48
REMARK   20  A    between atoms: _53  and  _55
REMARK   21  A    between atoms: _55  and  _56
REMARK   22  A    between atoms: _55  and  _58
REMARK   23  A    between atoms: _58  and  _59
REMARK   24  A    between atoms: _62  and  _64
REMARK   25  A    between atoms: _64  and  _65
REMARK   26  A    between atoms: _64  and  _67
REMARK   27  A    between atoms: _67  and  _68
REMARK   28  A    between atoms: _73  and  _75
REMARK   29  A    between atoms: _75  and  _76
REMARK   30  A    between atoms: _75  and  _78
REMARK   31  A    between atoms: _78  and  _79
REMARK   32  A    between atoms: _82  and  _84
REMARK   33  A    between atoms: _84  and  _85
REMARK   34  A    between atoms: _84  and  _87
REMARK   35  A    between atoms: _87  and  _88
REMARK   36  A    between atoms: _88  and  _89
REMARK   37  A    between atoms: _89  and  _90
REMARK   38  A    between atoms: _90  and  _91
REMARK   39  A    between atoms: _95  and  _97
REMARK   40  A    between atoms: _97  and  _98
REMARK   41  A    between atoms: _97  and  _100
REMARK   42  A    between atoms: _103  and  _105
REMARK   43  A    between atoms: _105  and  _106
REMARK   44  A    between atoms: _105  and  _108
REMARK   45  A    between atoms: _108  and  _109
REMARK   46  A    between atoms: _109  and  _110
REMARK   47  A    between atoms: _110  and  _111
REMARK   48  A    between atoms: _120  and  _122
REMARK   49  A    between atoms: _122  and  _123
REMARK   50  A    between atoms: _122  and  _125
REMARK   51  A    between atoms: _127  and  _129
REMARK   52  A    between atoms: _129  and  _130
REMARK   53  A    between atoms: _129  and  _132
REMARK   54  A    between atoms: _132  and  _133
REMARK   55  A    between atoms: _138  and  _139
REMARK   56  A    between atoms: _141  and  _143
REMARK   57  A    between atoms: _143  and  _144
REMARK   58  A    between atoms: _146  and  _148
REMARK   59  A    between atoms: _148  and  _149
REMARK   60  A    between atoms: _151  and  _153
REMARK   61  A    between atoms: _153  and  _154
REMARK   62  A    between atoms: _153  and  _156
REMARK   63  A    between atoms: _156  and  _157
REMARK   64  A    between atoms: _160  and  _162
REMARK   65  A    between atoms: _162  and  _163
REMARK   66  A    between atoms: _162  and  _165
REMARK   67  A    between atoms: _165  and  _166
REMARK   68  A    between atoms: _166  and  _167
REMARK   69  A    between atoms: _172  and  _174
REMARK   70  A    between atoms: _174  and  _175
REMARK   71  A    between atoms: _174  and  _177
REMARK   72  A    between atoms: _177  and  _178
REMARK   73  A    between atoms: _180  and  _182
REMARK   74  A    between atoms: _182  and  _183
REMARK   75  A    between atoms: _182  and  _185
REMARK   76  A    between atoms: _185  and  _186
REMARK   77  A    between atoms: _196  and  _198
REMARK   78  A    between atoms: _198  and  _199
REMARK   79  A    between atoms: _198  and  _201
REMARK   80  A    between atoms: _201  and  _202
REMARK   81  A    between atoms: _202  and  _203
REMARK   82  A    between atoms: _203  and  _204
REMARK   83  A    between atoms: _204  and  _205
REMARK   84  A    between atoms: _209  and  _211
REMARK   85  A    between atoms: _211  and  _212
REMARK   86  A    between atoms: _211  and  _214
REMARK   87  A    between atoms: _214  and  _215
REMARK   88  A    between atoms: _215  and  _216
REMARK   89  A    between atoms: _216  and  _217
REMARK   90  A    between atoms: _226  and  _228
REMARK   91  A    between atoms: _228  and  _229
REMARK   92  A    between atoms: _231  and  _233
REMARK   93  A    between atoms: _233  and  _234
REMARK   94  A    between atoms: _233  and  _236
REMARK   95  A    between atoms: _236  and  _237
REMARK   96  A    between atoms: _240  and  _242
REMARK   97  A    between atoms: _242  and  _243
REMARK   98  A    between atoms: _242  and  _245
REMARK   99  A    between atoms: _245  and  _246
REMARK  100  A    between atoms: _250  and  _251
REMARK  101  A    between atoms: _256  and  _258
REMARK  102  A    between atoms: _258  and  _259
REMARK  103  A    between atoms: _258  and  _261
REMARK  104  A    between atoms: _261  and  _262
REMARK  105  A    between atoms: _262  and  _263
REMARK  106  A    between atoms: _266  and  _268
REMARK  107  A    between atoms: _268  and  _269
REMARK  108  A    between atoms: _268  and  _271
REMARK  109  A    between atoms: _271  and  _272
REMARK  110  A    between atoms: _277  and  _279
REMARK  111  A    between atoms: _279  and  _280
REMARK  112  A    between atoms: _279  and  _282
REMARK  113  A    between atoms: _282  and  _283
REMARK  114  A    between atoms: _283  and  _284
REMARK  115  A    between atoms: _284  and  _285
REMARK  116  A    between atoms: _285  and  _286
REMARK  117  A    between atoms: _290  and  _292
REMARK  118  A    between atoms: _292  and  _293
REMARK  119  A    between atoms: _292  and  _295
REMARK  120  A    between atoms: _295  and  _296
REMARK  121  A    between atoms: _306  and  _308
REMARK  122  A    between atoms: _308  and  _309
REMARK  123  A    between atoms: _308  and  _311
REMARK  124  A    between atoms: _311  and  _312
REMARK                            x       y       z     vdW  Elec       q    Type
REMARK                         _______ _______ _______ _____ _____    ______ ____
ROOT
ATOM      1  CA  PHE A   2      80.728  67.171  27.478  0.00  0.00    +0.153 C 
ENDROOT
BRANCH   1   4
ATOM      2  C   PHE A   1      82.535  68.211  26.201  0.00  0.00    +0.239 C 
ATOM      3  O   PHE A   1      83.331  68.168  27.142  0.00  0.00    -0.274 OA
ATOM      4  N   PHE A   2      81.258  67.871  26.311  0.00  0.00    -0.297 N 
ATOM      5  H   PHE A   2      80.608  68.112  25.536  0.00  0.00    +0.150 HD
BRANCH   2   6
ATOM      6  CA  PHE A   1      82.968  68.680  24.816  0.00  0.00    +0.149 C 
BRANCH   6   7
ATOM      7  N   PHE A   1      83.964  69.758  24.863  0.00  0.00    -0.238 NA
ATOM      8  H   PHE A   1      84.971  69.502  24.897  0.00  0.00    +0.142 HD
ENDBRANCH   6   7
BRANCH   6   9
ATOM      9  CB  PHE A   1      83.490  67.479  24.022  0.00  0.00    +0.053 C 
BRANCH   9  10
ATOM     10  CG  PHE A   1      83.866  67.806  22.583  0.00  0.00    -0.020 A 
ATOM     11  CD2 PHE A   1      85.187  67.754  22.166  0.00  0.00    -0.004 A 
ATOM     12  CE2 PHE A   1      85.539  68.045  20.823  0.00  0.00    -0.000 A 
ATOM     13  CZ  PHE A   1      84.555  68.390  19.914  0.00  0.00    -0.000 A 
ATOM     14  CE1 PHE A   1      83.229  68.453  20.334  0.00  0.00    -0.000 A 
ATOM     15  CD1 PHE A   1      82.896  68.155  21.658  0.00  0.00    -0.004 A 
ENDBRANCH   9  10
ENDBRANCH   6   9
ENDBRANCH   2   6
ENDBRANCH   1   4
BRANCH   1  16
ATOM     16  C   PHE A   2      80.012  65.895  27.023  0.00  0.00    +0.241 C 
ATOM     17  N   HIS A   3      79.986  64.898  27.893  0.00  0.00    -0.297 N 
ATOM     18  H   HIS A   3      80.466  65.018  28.808  0.00  0.00    +0.150 HD
ATOM     19  O   PHE A   2      79.478  65.835  25.909  0.00  0.00    -0.273 OA
BRANCH  17  20
ATOM     20  CA  HIS A   3      79.317  63.652  27.618  0.00  0.00    +0.155 C 
BRANCH  20  21
ATOM     21  C   HIS A   3      77.805  63.819  27.761  0.00  0.00    +0.241 C 
ATOM     22  O   HIS A   3      77.321  64.347  28.759  0.00  0.00    -0.273 OA
ATOM     23  N   THR A   4      77.073  63.351  26.761  0.00  0.00    -0.296 N 
ATOM     24  H   THR A   4      77.553  62.986  25.913  0.00  0.00    +0.150 HD
BRANCH  23  25
ATOM     25  CA  THR A   4      75.615  63.331  26.812  0.00  0.00    +0.164 C 
BRANCH  25  26
ATOM     26  CB  THR A   4      74.992  63.027  25.449  0.00  0.00    +0.136 C 
ATOM     27  CG2 THR A   4      75.492  64.000  24.390  0.00  0.00    +0.034 C 
BRANCH  26  28
ATOM     28  OG1 THR A   4      75.300  61.676  25.076  0.00  0.00    -0.382 OA
ATOM     29  HG1 THR A   4      76.282  61.565  25.024  0.00  0.00    +0.210 HD
ENDBRANCH  26  28
ENDBRANCH  25  26
BRANCH  25  30
ATOM     30  C   THR A   4      75.058  62.276  27.755  0.00  0.00    +0.229 C 
ATOM     31  O   THR A   4      73.919  62.412  28.214  0.00  0.00    -0.286 OA
ENDBRANCH  25  30
ENDBRANCH  23  25
ENDBRANCH  20  21
BRANCH  20  32
ATOM     32  CB  HIS A   3      79.803  62.548  28.578  0.00  0.00    +0.076 C 
BRANCH  32  33
ATOM     33  CG  HIS A   3      79.440  61.157  28.142  0.00  0.00    +0.082 A 
ATOM     34  ND1 HIS A   3      79.405  60.089  29.012  0.00  0.00    -0.227 NA
ATOM     35  CE1 HIS A   3      79.063  58.994  28.353  0.00  0.00    +0.199 A 
ATOM     36  NE2 HIS A   3      78.854  59.318  27.090  0.00  0.00    -0.221 NA
ATOM     37  CD2 HIS A   3      79.094  60.664  26.931  0.00  0.00    +0.115 A 
ENDBRANCH  32  33
ENDBRANCH  20  32
ENDBRANCH  17  20
ENDBRANCH   1  16
BRANCH   1  38
ATOM     38  CB  PHE A   2      79.757  68.065  28.239  0.00  0.00    +0.055 C 
BRANCH  38  39
ATOM     39  CG  PHE A   2      78.524  68.450  27.455  0.00  0.00    -0.020 A 
ATOM     40  CD2 PHE A   2      77.400  67.635  27.446  0.00  0.00    -0.004 A 
ATOM     41  CE2 PHE A   2      76.251  68.009  26.747  0.00  0.00    -0.000 A 
ATOM     42  CZ  PHE A   2      76.217  69.200  26.059  0.00  0.00    -0.000 A 
ATOM     43  CE1 PHE A   2      77.318  70.035  26.075  0.00  0.00    -0.000 A 
ATOM     44  CD1 PHE A   2      78.467  69.659  26.770  0.00  0.00    -0.004 A 
ENDBRANCH  38  39
ENDBRANCH   1  38
TORSDOF 16
REMARK  Name = ../refined-set-2016/2i3i/2i3i_pocket.pdb
REMARK  124 active torsions:
REMARK  status: ('A' for Active; 'I' for Inactive)
REMARK    1  A    between atoms: _1  and  _3
REMARK    2  A    between atoms: _3  and  _4
REMARK    3  A    between atoms: _3  and  _6
REMARK    4  A    between atoms: _9  and  _11
REMARK    5  A    between atoms: _11  and  _12
REMARK    6  A    between atoms: _11  and  _14
REMARK    7  A    between atoms: _14  and  _15
REMARK    8  A    between atoms: _18  and  _20
REMARK    9  A    between atoms: _20  and  _21
REMARK   10  A    between atoms: _20  and  _23
REMARK   11  A    between atoms: _23  and  _24
REMARK   12  A    between atoms: _30  and  _32
REMARK   13  A    between atoms: _32  and  _33
REMARK   14  A    between atoms: _32  and  _35
REMARK   15  A    between atoms: _35  and  _36
REMARK   16  A    between atoms: _42  and  _44
REMARK   17  A    between atoms: _44  and  _45
REMARK   18  A    between atoms: _44  and  _47
REMARK   19  A    between atoms: _47  and  _48
REMARK   20  A    between atoms: _53  and  _55
REMARK   21  A    between atoms: _55  and  _56
REMARK   22  A    between atoms: _55  and  _58
REMARK   23  A    between atoms: _58  and  _59
REMARK   24  A    between atoms: _62  and  _64
REMARK   25  A    between atoms: _64  and  _65
REMARK   26  A    between atoms: _64  and  _67
REMARK   27  A    between atoms: _67  and  _68
REMARK   28  A    between atoms: _73  and  _75
REMARK   29  A    between atoms: _75  and  _76
REMARK   30  A    between atoms: _75  and  _78
REMARK   31  A    between atoms: _78  and  _79
REMARK   32  A    between atoms: _82  and  _84
REMARK   33  A    between atoms: _84  and  _85
REMARK   34  A    between atoms: _84  and  _87
REMARK   35  A    between atoms: _87  and  _88
REMARK   36  A    between atoms: _88  and  _89
REMARK   37  A    between atoms: _89  and  _90
REMARK   38  A    between atoms: _90  and  _91
REMARK   39  A    between atoms: _95  and  _97
REMARK   40  A    between atoms: _97  and  _98
REMARK   41  A    between atoms: _97  and  _100
REMARK   42  A    between atoms: _103  and  _105
REMARK   43  A    between atoms: _105  and  _106
REMARK   44  A    between atoms: _105  and  _108
REMARK   45  A    between atoms: _108  and  _109
REMARK   46  A    between atoms: _109  and  _110
REMARK   47  A    between atoms: _110  and  _111
REMARK   48  A    between atoms: _120  and  _122
REMARK   49  A    between atoms: _122  and  _123
REMARK   50  A    between atoms: _122  and  _125
REMARK   51  A    between atoms: _127  and  _129
REMARK   52  A    between atoms: _129  and  _130
REMARK   53  A    between atoms: _129  and  _132
REMARK   54  A    between atoms: _132  and  _133
REMARK   55  A    between atoms: _138  and  _139
REMARK   56  A    between atoms: _141  and  _143
REMARK   57  A    between atoms: _143  and  _144
REMARK   58  A    between atoms: _146  and  _148
REMARK   59  A    between atoms: _148  and  _149
REMARK   60  A    between atoms: _151  and  _153
REMARK   61  A    between atoms: _153  and  _154
REMARK   62  A    between atoms: _153  and  _156
REMARK   63  A    between atoms: _156  and  _157
REMARK   64  A    between atoms: _160  and  _162
REMARK   65  A    between atoms: _162  and  _163
REMARK   66  A    between atoms: _162  and  _165
REMARK   67  A    between atoms: _165  and  _166
REMARK   68  A    between atoms: _166  and  _167
REMARK   69  A    between atoms: _172  and  _174
REMARK   70  A    between atoms: _174  and  _175
REMARK   71  A    between atoms: _174  and  _177
REMARK   72  A    between atoms: _177  and  _178
REMARK   73  A    between atoms: _180  and  _182
REMARK   74  A    between atoms: _182  and  _183
REMARK   75  A    between atoms: _182  and  _185
REMARK   76  A    between atoms: _185  and  _186
REMARK   77  A    between atoms: _196  and  _198
REMARK   78  A    between atoms: _198  and  _199
REMARK   79  A    between atoms: _198  and  _201
REMARK   80  A    between atoms: _201  and  _202
REMARK   81  A    between atoms: _202  and  _203
REMARK   82  A    between atoms: _203  and  _204
REMARK   83  A    between atoms: _204  and  _205
REMARK   84  A    between atoms: _209  and  _211
REMARK   85  A    between atoms: _211  and  _212
REMARK   86  A    between atoms: _211  and  _214
REMARK   87  A    between atoms: _214  and  _215
REMARK   88  A    between atoms: _215  and  _216
REMARK   89  A    between atoms: _216  and  _217
REMARK   90  A    between atoms: _226  and  _228
REMARK   91  A    between atoms: _228  and  _229
REMARK   92  A    between atoms: _231  and  _233
REMARK   93  A    between atoms: _233  and  _234
REMARK   94  A    between atoms: _233  and  _236
REMARK   95  A    between atoms: _236  and  _237
REMARK   96  A    between atoms: _240  and  _242
REMARK   97  A    between atoms: _242  and  _243
REMARK   98  A    between atoms: _242  and  _245
REMARK   99  A    between atoms: _245  and  _246
REMARK  100  A    between atoms: _250  and  _251
REMARK  101  A    between atoms: _256  and  _258
REMARK  102  A    between atoms: _258  and  _259
REMARK  103  A    between atoms: _258  and  _261
REMARK  104  A    between atoms: _261  and  _262
REMARK  105  A    between atoms: _262  and  _263
REMARK  106  A    between atoms: _266  and  _268
REMARK  107  A    between atoms: _268  and  _269
REMARK  108  A    between atoms: _268  and  _271
REMARK  109  A    between atoms: _271  and  _272
REMARK  110  A    between atoms: _277  and  _279
REMARK  111  A    between atoms: _279  and  _280
REMARK  112  A    between atoms: _279  and  _282
REMARK  113  A    between atoms: _282  and  _283
REMARK  114  A    between atoms: _283  and  _284
REMARK  115  A    between atoms: _284  and  _285
REMARK  116  A    between atoms: _285  and  _286
REMARK  117  A    between atoms: _290  and  _292
REMARK  118  A    between atoms: _292  and  _293
REMARK  119  A    between atoms: _292  and  _295
REMARK  120  A    between atoms: _295  and  _296
REMARK  121  A    between atoms: _306  and  _308
REMARK  122  A    between atoms: _308  and  _309
REMARK  123  A    between atoms: _308  and  _311
REMARK  124  A    between atoms: _311  and  _312
REMARK                            x       y       z     vdW  Elec       q    Type
REMARK                         _______ _______ _______ _____ _____    ______ ____
ROOT
ATOM      1  CB  HIS A   1      73.340  58.544  24.888  0.00  0.00    +0.072 C 
ENDROOT
BRANCH   1   2
ATOM      2  CG  HIS A   1      71.991  58.591  25.544  0.00  0.00    +0.082 A 
ATOM      3  CD2 HIS A   1      71.375  57.721  26.383  0.00  0.00    +0.115 A 
ATOM      4  NE2 HIS A   1      70.135  58.245  26.676  0.00  0.00    -0.221 NA
ATOM      5  CE1 HIS A   1      69.993  59.395  26.037  0.00  0.00    +0.199 A 
ATOM      6  ND1 HIS A   1      71.104  59.633  25.352  0.00  0.00    -0.227 NA
ENDBRANCH   1   2
BRANCH   1   7
ATOM      7  CA  HIS A   1      74.461  58.024  25.802  0.00  0.00    +0.139 C 
BRANCH   7   8
ATOM      8  N   HIS A   1      74.872  59.092  26.716  0.00  0.00    -0.239 NA
ATOM      9  H   HIS A   1      75.002  60.053  26.340  0.00  0.00    +0.142 HD
ENDBRANCH   7   8
BRANCH   7  10
ATOM     10  C   HIS A   1      75.646  57.538  24.958  0.00  0.00    +0.224 C 
ATOM     11  O   HIS A   1      76.291  58.333  24.290  0.00  0.00    -0.287 OA
ENDBRANCH   7  10
ENDBRANCH   1   7
TORSDOF 4
REMARK  Name = ../refined-set-2016/2i3i/2i3i_pocket.pdb
REMARK  124 active torsions:
REMARK  status: ('A' for Active; 'I' for Inactive)
REMARK    1  A    between atoms: _1  and  _3
REMARK    2  A    between atoms: _3  and  _4
REMARK    3  A    between atoms: _3  and  _6
REMARK    4  A    between atoms: _9  and  _11
REMARK    5  A    between atoms: _11  and  _12
REMARK    6  A    between atoms: _11  and  _14
REMARK    7  A    between atoms: _14  and  _15
REMARK    8  A    between atoms: _18  and  _20
REMARK    9  A    between atoms: _20  and  _21
REMARK   10  A    between atoms: _20  and  _23
REMARK   11  A    between atoms: _23  and  _24
REMARK   12  A    between atoms: _30  and  _32
REMARK   13  A    between atoms: _32  and  _33
REMARK   14  A    between atoms: _32  and  _35
REMARK   15  A    between atoms: _35  and  _36
REMARK   16  A    between atoms: _42  and  _44
REMARK   17  A    between atoms: _44  and  _45
REMARK   18  A    between atoms: _44  and  _47
REMARK   19  A    between atoms: _47  and  _48
REMARK   20  A    between atoms: _53  and  _55
REMARK   21  A    between atoms: _55  and  _56
REMARK   22  A    between atoms: _55  and  _58
REMARK   23  A    between atoms: _58  and  _59
REMARK   24  A    between atoms: _62  and  _64
REMARK   25  A    between atoms: _64  and  _65
REMARK   26  A    between atoms: _64  and  _67
REMARK   27  A    between atoms: _67  and  _68
REMARK   28  A    between atoms: _73  and  _75
REMARK   29  A    between atoms: _75  and  _76
REMARK   30  A    between atoms: _75  and  _78
REMARK   31  A    between atoms: _78  and  _79
REMARK   32  A    between atoms: _82  and  _84
REMARK   33  A    between atoms: _84  and  _85
REMARK   34  A    between atoms: _84  and  _87
REMARK   35  A    between atoms: _87  and  _88
REMARK   36  A    between atoms: _88  and  _89
REMARK   37  A    between atoms: _89  and  _90
REMARK   38  A    between atoms: _90  and  _91
REMARK   39  A    between atoms: _95  and  _97
REMARK   40  A    between atoms: _97  and  _98
REMARK   41  A    between atoms: _97  and  _100
REMARK   42  A    between atoms: _103  and  _105
REMARK   43  A    between atoms: _105  and  _106
REMARK   44  A    between atoms: _105  and  _108
REMARK   45  A    between atoms: _108  and  _109
REMARK   46  A    between atoms: _109  and  _110
REMARK   47  A    between atoms: _110  and  _111
REMARK   48  A    between atoms: _120  and  _122
REMARK   49  A    between atoms: _122  and  _123
REMARK   50  A    between atoms: _122  and  _125
REMARK   51  A    between atoms: _127  and  _129
REMARK   52  A    between atoms: _129  and  _130
REMARK   53  A    between atoms: _129  and  _132
REMARK   54  A    between atoms: _132  and  _133
REMARK   55  A    between atoms: _138  and  _139
REMARK   56  A    between atoms: _141  and  _143
REMARK   57  A    between atoms: _143  and  _144
REMARK   58  A    between atoms: _146  and  _148
REMARK   59  A    between atoms: _148  and  _149
REMARK   60  A    between atoms: _151  and  _153
REMARK   61  A    between atoms: _153  and  _154
REMARK   62  A    between atoms: _153  and  _156
REMARK   63  A    between atoms: _156  and  _157
REMARK   64  A    between atoms: _160  and  _162
REMARK   65  A    between atoms: _162  and  _163
REMARK   66  A    between atoms: _162  and  _165
REMARK   67  A    between atoms: _165  and  _166
REMARK   68  A    between atoms: _166  and  _167
REMARK   69  A    between atoms: _172  and  _174
REMARK   70  A    between atoms: _174  and  _175
REMARK   71  A    between atoms: _174  and  _177
REMARK   72  A    between atoms: _177  and  _178
REMARK   73  A    between atoms: _180  and  _182
REMARK   74  A    between atoms: _182  and  _183
REMARK   75  A    between atoms: _182  and  _185
REMARK   76  A    between atoms: _185  and  _186
REMARK   77  A    between atoms: _196  and  _198
REMARK   78  A    between atoms: _198  and  _199
REMARK   79  A    between atoms: _198  and  _201
REMARK   80  A    between atoms: _201  and  _202
REMARK   81  A    between atoms: _202  and  _203
REMARK   82  A    between atoms: _203  and  _204
REMARK   83  A    between atoms: _204  and  _205
REMARK   84  A    between atoms: _209  and  _211
REMARK   85  A    between atoms: _211  and  _212
REMARK   86  A    between atoms: _211  and  _214
REMARK   87  A    between atoms: _214  and  _215
REMARK   88  A    between atoms: _215  and  _216
REMARK   89  A    between atoms: _216  and  _217
REMARK   90  A    between atoms: _226  and  _228
REMARK   91  A    between atoms: _228  and  _229
REMARK   92  A    between atoms: _231  and  _233
REMARK   93  A    between atoms: _233  and  _234
REMARK   94  A    between atoms: _233  and  _236
REMARK   95  A    between atoms: _236  and  _237
REMARK   96  A    between atoms: _240  and  _242
REMARK   97  A    between atoms: _242  and  _243
REMARK   98  A    between atoms: _242  and  _245
REMARK   99  A    between atoms: _245  and  _246
REMARK  100  A    between atoms: _250  and  _251
REMARK  101  A    between atoms: _256  and  _258
REMARK  102  A    between atoms: _258  and  _259
REMARK  103  A    between atoms: _258  and  _261
REMARK  104  A    between atoms: _261  and  _262
REMARK  105  A    between atoms: _262  and  _263
REMARK  106  A    between atoms: _266  and  _268
REMARK  107  A    between atoms: _268  and  _269
REMARK  108  A    between atoms: _268  and  _271
REMARK  109  A    between atoms: _271  and  _272
REMARK  110  A    between atoms: _277  and  _279
REMARK  111  A    between atoms: _279  and  _280
REMARK  112  A    between atoms: _279  and  _282
REMARK  113  A    between atoms: _282  and  _283
REMARK  114  A    between atoms: _283  and  _284
REMARK  115  A    between atoms: _284  and  _285
REMARK  116  A    between atoms: _285  and  _286
REMARK  117  A    between atoms: _290  and  _292
REMARK  118  A    between atoms: _292  and  _293
REMARK  119  A    between atoms: _292  and  _295
REMARK  120  A    between atoms: _295  and  _296
REMARK  121  A    between atoms: _306  and  _308
REMARK  122  A    between atoms: _308  and  _309
REMARK  123  A    between atoms: _308  and  _311
REMARK  124  A    between atoms: _311  and  _312
REMARK                            x       y       z     vdW  Elec       q    Type
REMARK                         _______ _______ _______ _____ _____    ______ ____
ROOT
ATOM      1  CA  VAL A   3      79.610  64.145  23.052  0.00  0.00    +0.149 C 
ENDROOT
BRANCH   1   4
ATOM      2  C   LYS A   2      78.532  61.960  22.957  0.00  0.00    +0.241 C 
ATOM      3  O   LYS A   2      78.228  61.979  24.146  0.00  0.00    -0.273 OA
ATOM      4  N   VAL A   3      79.252  62.918  22.371  0.00  0.00    -0.297 N 
ATOM      5  H   VAL A   3      79.568  62.779  21.390  0.00  0.00    +0.150 HD
BRANCH   2   6
ATOM      6  CA  LYS A   2      78.126  60.793  22.068  0.00  0.00    +0.149 C 
BRANCH   6   8
ATOM      7  C   ASP A   1      79.821  59.132  22.647  0.00  0.00    +0.239 C 
ATOM      8  N   LYS A   2      78.548  59.524  22.671  0.00  0.00    -0.297 N 
ATOM      9  H   LYS A   2      77.838  58.917  23.127  0.00  0.00    +0.150 HD
ATOM     10  O   ASP A   1      80.722  59.802  22.121  0.00  0.00    -0.274 OA
BRANCH   7  11
ATOM     11  CA  ASP A   1      80.139  57.789  23.309  0.00  0.00    +0.156 C 
BRANCH  11  12
ATOM     12  N   ASP A   1      78.987  56.882  23.299  0.00  0.00    -0.238 NA
ATOM     13  H   ASP A   1      78.703  56.449  22.397  0.00  0.00    +0.142 HD
ENDBRANCH  11  12
BRANCH  11  14
ATOM     14  CB  ASP A   1      81.343  57.136  22.611  0.00  0.00    +0.140 C 
BRANCH  14  15
ATOM     15  CG  ASP A   1      81.121  56.895  21.120  0.00  0.00    +0.367 C 
ATOM     16  OD2 ASP A   1      79.974  57.025  20.644  0.00  0.00    -0.246 OA
ATOM     17  OD1 ASP A   1      82.090  56.555  20.421  0.00  0.00    -0.246 OA
ENDBRANCH  14  15
ENDBRANCH  11  14
ENDBRANCH   7  11
ENDBRANCH   6   8
BRANCH   6  18
ATOM     18  CB  LYS A   2      76.627  60.835  21.847  0.00  0.00    +0.029 C 
BRANCH  18  19
ATOM     19  CG  LYS A   2      76.096  59.827  20.864  0.00  0.00    +0.000 C 
BRANCH  19  20
ATOM     20  CD  LYS A   2      74.569  59.873  20.870  0.00  0.00    -0.024 C 
BRANCH  20  21
ATOM     21  CE  LYS A   2      73.955  58.922  19.874  0.00  0.00    -0.086 C 
BRANCH  21  22
ATOM     22  NZ  LYS A   2      74.495  57.532  20.031  0.00  0.00    +0.380 N 
ATOM     23  HZ1 LYS A   2      74.284  57.186  20.989  0.00  0.00    -0.089 HD
ATOM     24  HZ2 LYS A   2      75.524  57.543  19.884  0.00  0.00    -0.089 HD
ATOM     25  HZ3 LYS A   2      74.049  56.907  19.329  0.00  0.00    -0.089 HD
ENDBRANCH  21  22
ENDBRANCH  20  21
ENDBRANCH  19  20
ENDBRANCH  18  19
ENDBRANCH   6  18
ENDBRANCH   2   6
ENDBRANCH   1   4
BRANCH   1  26
ATOM     26  C   VAL A   3      79.126  65.345  22.261  0.00  0.00    +0.241 C 
ATOM     27  N   ARG A   4      79.103  66.485  22.935  0.00  0.00    -0.297 N 
ATOM     28  H   ARG A   4      79.397  66.489  23.933  0.00  0.00    +0.150 HD
ATOM     29  O   VAL A   3      78.801  65.252  21.090  0.00  0.00    -0.273 OA
BRANCH  27  30
ATOM     30  CA  ARG A   4      78.684  67.713  22.326  0.00  0.00    +0.149 C 
BRANCH  30  31
ATOM     31  C   ARG A   4      79.507  68.896  22.843  0.00  0.00    +0.241 C 
ATOM     32  O   ARG A   4      79.845  68.953  24.014  0.00  0.00    -0.273 OA
ATOM     33  N   CYS A   5      79.840  69.818  21.936  0.00  0.00    -0.297 N 
ATOM     34  H   CYS A   5      79.636  69.635  20.933  0.00  0.00    +0.150 HD
BRANCH  33  35
ATOM     35  CA  CYS A   5      80.479  71.070  22.307  0.00  0.00    +0.149 C 
BRANCH  35  36
ATOM     36  CB  CYS A   5      81.122  71.720  21.089  0.00  0.00    +0.096 C 
ATOM     37  SG  CYS A   5      81.810  73.401  21.357  0.00  0.00    -0.080 S 
ENDBRANCH  35  36
BRANCH  35  38
ATOM     38  C   CYS A   5      79.468  72.053  22.905  0.00  0.00    +0.228 C 
ATOM     39  O   CYS A   5      78.427  72.314  22.304  0.00  0.00    -0.286 OA
ENDBRANCH  35  38
ENDBRANCH  33  35
ENDBRANCH  30  31
BRANCH  30  40
ATOM     40  CB  ARG A   4      77.212  67.911  22.605  0.00  0.00    +0.033 C 
BRANCH  40  41
ATOM     41  CG  ARG A   4      76.570  68.850  21.667  0.00  0.00    +0.045 C 
BRANCH  41  42
ATOM     42  CD  ARG A   4      75.168  69.173  22.089  0.00  0.00    +0.174 C 
BRANCH  42  43
ATOM     43  NE  ARG A   4      74.245  68.032  22.071  0.00  0.00    -0.265 N 
ATOM     44  HE  ARG A   4      74.075  67.535  22.969  0.00  0.00    +0.259 HD
ATOM     45  CZ  ARG A   4      73.610  67.587  20.990  0.00  0.00    +0.342 C 
ATOM     46  NH2 ARG A   4      72.748  66.577  21.108  0.00  0.00    -0.292 N 
ATOM     47 HH21 ARG A   4      72.577  66.145  22.038  0.00  0.00    +0.255 HD
ATOM     48 HH22 ARG A   4      72.246  66.221  20.270  0.00  0.00    +0.255 HD
ATOM     49  NH1 ARG A   4      73.829  68.132  19.794  0.00  0.00    -0.292 N 
ATOM     50 HH11 ARG A   4      74.504  68.917  19.696  0.00  0.00    +0.255 HD
ATOM     51 HH12 ARG A   4      73.325  67.773  18.959  0.00  0.00    +0.255 HD
ENDBRANCH  42  43
ENDBRANCH  41  42
ENDBRANCH  40  41
ENDBRANCH  30  40
ENDBRANCH  27  30
ENDBRANCH   1  26
BRANCH   1  52
ATOM     52  CB  VAL A   3      81.127  64.268  23.303  0.00  0.00    +0.027 C 
ATOM     53  CG2 VAL A   3      81.648  63.016  23.995  0.00  0.00    +0.002 C 
ATOM     54  CG1 VAL A   3      81.893  64.552  22.011  0.00  0.00    +0.002 C 
ENDBRANCH   1  52
TORSDOF 23
REMARK  Name = ../refined-set-2016/2i3i/2i3i_pocket.pdb
REMARK  124 active torsions:
REMARK  status: ('A' for Active; 'I' for Inactive)
REMARK    1  A    between atoms: _1  and  _3
REMARK    2  A    between atoms: _3  and  _4
REMARK    3  A    between atoms: _3  and  _6
REMARK    4  A    between atoms: _9  and  _11
REMARK    5  A    between atoms: _11  and  _12
REMARK    6  A    between atoms: _11  and  _14
REMARK    7  A    between atoms: _14  and  _15
REMARK    8  A    between atoms: _18  and  _20
REMARK    9  A    between atoms: _20  and  _21
REMARK   10  A    between atoms: _20  and  _23
REMARK   11  A    between atoms: _23  and  _24
REMARK   12  A    between atoms: _30  and  _32
REMARK   13  A    between atoms: _32  and  _33
REMARK   14  A    between atoms: _32  and  _35
REMARK   15  A    between atoms: _35  and  _36
REMARK   16  A    between atoms: _42  and  _44
REMARK   17  A    between atoms: _44  and  _45
REMARK   18  A    between atoms: _44  and  _47
REMARK   19  A    between atoms: _47  and  _48
REMARK   20  A    between atoms: _53  and  _55
REMARK   21  A    between atoms: _55  and  _56
REMARK   22  A    between atoms: _55  and  _58
REMARK   23  A    between atoms: _58  and  _59
REMARK   24  A    between atoms: _62  and  _64
REMARK   25  A    between atoms: _64  and  _65
REMARK   26  A    between atoms: _64  and  _67
REMARK   27  A    between atoms: _67  and  _68
REMARK   28  A    between atoms: _73  and  _75
REMARK   29  A    between atoms: _75  and  _76
REMARK   30  A    between atoms: _75  and  _78
REMARK   31  A    between atoms: _78  and  _79
REMARK   32  A    between atoms: _82  and  _84
REMARK   33  A    between atoms: _84  and  _85
REMARK   34  A    between atoms: _84  and  _87
REMARK   35  A    between atoms: _87  and  _88
REMARK   36  A    between atoms: _88  and  _89
REMARK   37  A    between atoms: _89  and  _90
REMARK   38  A    between atoms: _90  and  _91
REMARK   39  A    between atoms: _95  and  _97
REMARK   40  A    between atoms: _97  and  _98
REMARK   41  A    between atoms: _97  and  _100
REMARK   42  A    between atoms: _103  and  _105
REMARK   43  A    between atoms: _105  and  _106
REMARK   44  A    between atoms: _105  and  _108
REMARK   45  A    between atoms: _108  and  _109
REMARK   46  A    between atoms: _109  and  _110
REMARK   47  A    between atoms: _110  and  _111
REMARK   48  A    between atoms: _120  and  _122
REMARK   49  A    between atoms: _122  and  _123
REMARK   50  A    between atoms: _122  and  _125
REMARK   51  A    between atoms: _127  and  _129
REMARK   52  A    between atoms: _129  and  _130
REMARK   53  A    between atoms: _129  and  _132
REMARK   54  A    between atoms: _132  and  _133
REMARK   55  A    between atoms: _138  and  _139
REMARK   56  A    between atoms: _141  and  _143
REMARK   57  A    between atoms: _143  and  _144
REMARK   58  A    between atoms: _146  and  _148
REMARK   59  A    between atoms: _148  and  _149
REMARK   60  A    between atoms: _151  and  _153
REMARK   61  A    between atoms: _153  and  _154
REMARK   62  A    between atoms: _153  and  _156
REMARK   63  A    between atoms: _156  and  _157
REMARK   64  A    between atoms: _160  and  _162
REMARK   65  A    between atoms: _162  and  _163
REMARK   66  A    between atoms: _162  and  _165
REMARK   67  A    between atoms: _165  and  _166
REMARK   68  A    between atoms: _166  and  _167
REMARK   69  A    between atoms: _172  and  _174
REMARK   70  A    between atoms: _174  and  _175
REMARK   71  A    between atoms: _174  and  _177
REMARK   72  A    between atoms: _177  and  _178
REMARK   73  A    between atoms: _180  and  _182
REMARK   74  A    between atoms: _182  and  _183
REMARK   75  A    between atoms: _182  and  _185
REMARK   76  A    between atoms: _185  and  _186
REMARK   77  A    between atoms: _196  and  _198
REMARK   78  A    between atoms: _198  and  _199
REMARK   79  A    between atoms: _198  and  _201
REMARK   80  A    between atoms: _201  and  _202
REMARK   81  A    between atoms: _202  and  _203
REMARK   82  A    between atoms: _203  and  _204
REMARK   83  A    between atoms: _204  and  _205
REMARK   84  A    between atoms: _209  and  _211
REMARK   85  A    between atoms: _211  and  _212
REMARK   86  A    between atoms: _211  and  _214
REMARK   87  A    between atoms: _214  and  _215
REMARK   88  A    between atoms: _215  and  _216
REMARK   89  A    between atoms: _216  and  _217
REMARK   90  A    between atoms: _226  and  _228
REMARK   91  A    between atoms: _228  and  _229
REMARK   92  A    between atoms: _231  and  _233
REMARK   93  A    between atoms: _233  and  _234
REMARK   94  A    between atoms: _233  and  _236
REMARK   95  A    between atoms: _236  and  _237
REMARK   96  A    between atoms: _240  and  _242
REMARK   97  A    between atoms: _242  and  _243
REMARK   98  A    between atoms: _242  and  _245
REMARK   99  A    between atoms: _245  and  _246
REMARK  100  A    between atoms: _250  and  _251
REMARK  101  A    between atoms: _256  and  _258
REMARK  102  A    between atoms: _258  and  _259
REMARK  103  A    between atoms: _258  and  _261
REMARK  104  A    between atoms: _261  and  _262
REMARK  105  A    between atoms: _262  and  _263
REMARK  106  A    between atoms: _266  and  _268
REMARK  107  A    between atoms: _268  and  _269
REMARK  108  A    between atoms: _268  and  _271
REMARK  109  A    between atoms: _271  and  _272
REMARK  110  A    between atoms: _277  and  _279
REMARK  111  A    between atoms: _279  and  _280
REMARK  112  A    between atoms: _279  and  _282
REMARK  113  A    between atoms: _282  and  _283
REMARK  114  A    between atoms: _283  and  _284
REMARK  115  A    between atoms: _284  and  _285
REMARK  116  A    between atoms: _285  and  _286
REMARK  117  A    between atoms: _290  and  _292
REMARK  118  A    between atoms: _292  and  _293
REMARK  119  A    between atoms: _292  and  _295
REMARK  120  A    between atoms: _295  and  _296
REMARK  121  A    between atoms: _306  and  _308
REMARK  122  A    between atoms: _308  and  _309
REMARK  123  A    between atoms: _308  and  _311
REMARK  124  A    between atoms: _311  and  _312
REMARK                            x       y       z     vdW  Elec       q    Type
REMARK                         _______ _______ _______ _____ _____    ______ ____
ROOT
ATOM      1  CA  TRP A   7      85.182  57.769  18.497  0.00  0.00    +0.153 C 
ENDROOT
BRANCH   1   3
ATOM      2  C   SER A   6      83.329  57.199  17.048  0.00  0.00    +0.243 C 
ATOM      3  N   TRP A   7      83.800  57.439  18.255  0.00  0.00    -0.297 N 
ATOM      4  H   TRP A   7      83.149  57.388  19.065  0.00  0.00    +0.150 HD
ATOM      5  O   SER A   6      84.015  57.267  16.052  0.00  0.00    -0.273 OA
BRANCH   2   6
ATOM      6  CA  SER A   6      81.847  56.843  16.989  0.00  0.00    +0.178 C 
BRANCH   6   8
ATOM      7  C   GLN A   5      81.072  59.122  17.477  0.00  0.00    +0.241 C 
ATOM      8  N   SER A   6      81.024  57.819  17.719  0.00  0.00    -0.295 N 
ATOM      9  H   SER A   6      80.377  57.473  18.456  0.00  0.00    +0.150 HD
ATOM     10  O   GLN A   5      81.836  59.626  16.656  0.00  0.00    -0.273 OA
BRANCH   7  11
ATOM     11  CA  GLN A   5      80.096  59.999  18.253  0.00  0.00    +0.149 C 
BRANCH  11  14
ATOM     12  C   LEU A   4      80.291  62.440  18.525  0.00  0.00    +0.241 C 
ATOM     13  O   LEU A   4      80.205  62.410  19.767  0.00  0.00    -0.273 OA
ATOM     14  N   GLN A   5      80.251  61.355  17.746  0.00  0.00    -0.297 N 
ATOM     15  H   GLN A   5      80.335  61.487  16.718  0.00  0.00    +0.150 HD
BRANCH  12  16
ATOM     16  CA  LEU A   4      80.445  63.766  17.768  0.00  0.00    +0.149 C 
BRANCH  16  18
ATOM     17  C   GLY A   3      78.692  65.489  17.540  0.00  0.00    +0.243 C 
ATOM     18  N   LEU A   4      79.542  64.794  18.300  0.00  0.00    -0.297 N 
ATOM     19  H   LEU A   4      79.566  64.991  19.321  0.00  0.00    +0.150 HD
ATOM     20  O   GLY A   3      78.635  65.390  16.324  0.00  0.00    -0.273 OA
BRANCH  17  21
ATOM     21  CA  GLY A   3      77.773  66.463  18.262  0.00  0.00    +0.176 C 
BRANCH  21  24
ATOM     22  C   GLY A   2      78.337  68.835  18.277  0.00  0.00    +0.243 C 
ATOM     23  O   GLY A   2      78.872  68.762  19.387  0.00  0.00    -0.273 OA
ATOM     24  N   GLY A   3      77.809  67.792  17.659  0.00  0.00    -0.295 N 
ATOM     25  H   GLY A   3      77.405  67.923  16.710  0.00  0.00    +0.150 HD
BRANCH  22  26
ATOM     26  CA  GLY A   2      78.208  70.170  17.566  0.00  0.00    +0.176 C 
BRANCH  26  29
ATOM     27  C   TYR A   1      76.703  71.224  19.164  0.00  0.00    +0.239 C 
ATOM     28  O   TYR A   1      75.859  70.328  19.020  0.00  0.00    -0.274 OA
ATOM     29  N   GLY A   2      77.878  71.215  18.538  0.00  0.00    -0.296 N 
ATOM     30  H   GLY A   2      78.572  71.962  18.742  0.00  0.00    +0.150 HD
BRANCH  27  31
ATOM     31  CA  TYR A   1      76.433  72.401  20.102  0.00  0.00    +0.149 C 
BRANCH  31  32
ATOM     32  N   TYR A   1      77.394  73.510  19.928  0.00  0.00    -0.238 NA
ATOM     33  H   TYR A   1      78.034  73.713  20.723  0.00  0.00    +0.142 HD
ENDBRANCH  31  32
BRANCH  31  34
ATOM     34  CB  TYR A   1      74.971  72.880  19.975  0.00  0.00    +0.053 C 
BRANCH  34  35
ATOM     35  CG  TYR A   1      74.011  72.231  20.969  0.00  0.00    -0.020 A 
ATOM     36  CD2 TYR A   1      74.193  72.400  22.349  0.00  0.00    -0.001 A 
ATOM     37  CE2 TYR A   1      73.313  71.818  23.285  0.00  0.00    +0.036 A 
ATOM     38  CZ  TYR A   1      72.247  71.054  22.837  0.00  0.00    +0.134 A 
ATOM     39  CE1 TYR A   1      72.051  70.872  21.459  0.00  0.00    +0.036 A 
ATOM     40  CD1 TYR A   1      72.932  71.454  20.540  0.00  0.00    -0.001 A 
BRANCH  38  41
ATOM     41  OH  TYR A   1      71.374  70.502  23.771  0.00  0.00    -0.506 OA
ATOM     42  HH  TYR A   1      71.676  70.738  24.684  0.00  0.00    +0.292 HD
ENDBRANCH  38  41
ENDBRANCH  34  35
ENDBRANCH  31  34
ENDBRANCH  27  31
ENDBRANCH  26  29
ENDBRANCH  22  26
ENDBRANCH  21  24
ENDBRANCH  17  21
ENDBRANCH  16  18
BRANCH  16  43
ATOM     43  CB  LEU A   4      81.899  64.218  17.851  0.00  0.00    +0.029 C 
BRANCH  43  44
ATOM     44  CG  LEU A   4      82.325  65.382  16.961  0.00  0.00    +0.002 C 
ATOM     45  CD2 LEU A   4      83.755  65.758  17.265  0.00  0.00    +0.000 C 
ATOM     46  CD1 LEU A   4      82.161  65.082  15.461  0.00  0.00    +0.000 C 
ENDBRANCH  43  44
ENDBRANCH  16  43
ENDBRANCH  12  16
ENDBRANCH  11  14
BRANCH  11  47
ATOM     47  CB  GLN A   5      78.645  59.518  18.043  0.00  0.00    +0.039 C 
BRANCH  47  48
ATOM     48  CG  GLN A   5      78.275  59.234  16.573  0.00  0.00    +0.087 C 
BRANCH  48  49
ATOM     49  CD  GLN A   5      76.759  59.115  16.323  0.00  0.00    +0.219 C 
ATOM     50  OE1 GLN A   5      75.990  58.786  17.235  0.00  0.00    -0.275 OA
ATOM     51  NE2 GLN A   5      76.331  59.379  15.078  0.00  0.00    -0.329 N 
ATOM     52 HE21 GLN A   5      75.318  59.310  14.851  0.00  0.00    +0.145 HD
ATOM     53 HE22 GLN A   5      77.012  59.652  14.341  0.00  0.00    +0.145 HD
ENDBRANCH  48  49
ENDBRANCH  47  48
ENDBRANCH  11  47
ENDBRANCH   7  11
ENDBRANCH   6   8
BRANCH   6  54
ATOM     54  CB  SER A   6      81.347  56.707  15.553  0.00  0.00    +0.166 C 
BRANCH  54  55
ATOM     55  OG  SER A   6      79.966  56.346  15.555  0.00  0.00    -0.380 OA
ATOM     56  H   SER A   6      79.647  56.259  14.622  0.00  0.00    +0.211 HD
ENDBRANCH  54  55
ENDBRANCH   6  54
ENDBRANCH   2   6
ENDBRANCH   1   3
BRANCH   1  57
ATOM     57  C   TRP A   7      86.061  56.537  18.342  0.00  0.00    +0.241 C 
ATOM     58  O   TRP A   7      85.697  55.440  18.803  0.00  0.00    -0.273 OA
ATOM     59  N   LYS A   8      87.200  56.718  17.678  0.00  0.00    -0.297 N 
ATOM     60  H   LYS A   8      87.376  57.643  17.236  0.00  0.00    +0.150 HD
BRANCH  59  61
ATOM     61  CA  LYS A   8      88.212  55.677  17.543  0.00  0.00    +0.149 C 
BRANCH  61  62
ATOM     62  C   LYS A   8      89.365  55.949  18.504  0.00  0.00    +0.241 C 
ATOM     63  O   LYS A   8      89.597  57.085  18.921  0.00  0.00    -0.273 OA
ATOM     64  N   ARG A   9      90.081  54.893  18.859  0.00  0.00    -0.297 N 
ATOM     65  H   ARG A   9      89.854  53.961  18.457  0.00  0.00    +0.150 HD
BRANCH  64  66
ATOM     66  CA  ARG A   9      91.174  55.017  19.797  0.00  0.00    +0.149 C 
BRANCH  66  67
ATOM     67  C   ARG A   9      92.231  55.945  19.216  0.00  0.00    +0.241 C 
ATOM     68  N   GLY A  10      92.618  56.939  20.008  0.00  0.00    -0.295 N 
ATOM     69  H   GLY A  10      92.183  57.035  20.948  0.00  0.00    +0.150 HD
ATOM     70  O   ARG A   9      92.644  55.793  18.068  0.00  0.00    -0.273 OA
BRANCH  68  71
ATOM     71  CA  GLY A  10      93.630  57.893  19.598  0.00  0.00    +0.176 C 
BRANCH  71  72
ATOM     72  C   GLY A  10      93.101  59.100  18.834  0.00  0.00    +0.243 C 
ATOM     73  N   ASP A  11      91.783  59.178  18.627  0.00  0.00    -0.296 N 
ATOM     74  H   ASP A  11      91.178  58.372  18.886  0.00  0.00    +0.150 HD
ATOM     75  O   GLY A  10      93.891  59.935  18.417  0.00  0.00    -0.273 OA
BRANCH  73  76
ATOM     76  CA  ASP A  11      91.180  60.359  18.051  0.00  0.00    +0.160 C 
BRANCH  76  77
ATOM     77  C   ASP A  11      91.549  61.491  18.972  0.00  0.00    +0.241 C 
ATOM     78  O   ASP A  11      91.476  61.335  20.180  0.00  0.00    -0.273 OA
ATOM     79  N   ASP A  12      91.902  62.630  18.391  0.00  0.00    -0.297 N 
ATOM     80  H   ASP A  12      91.909  62.668  17.352  0.00  0.00    +0.150 HD
BRANCH  79  81
ATOM     81  CA  ASP A  12      92.281  63.832  19.123  0.00  0.00    +0.160 C 
BRANCH  81  82
ATOM     82  C   ASP A  12      91.102  64.788  19.125  0.00  0.00    +0.244 C 
ATOM     83  N   PRO A  13      90.530  65.058  20.306  0.00  0.00    -0.273 N 
ATOM     84  CD  PRO A  13      90.850  64.482  21.631  0.00  0.00    +0.094 C 
ATOM     85  CG  PRO A  13      89.621  64.816  22.460  0.00  0.00    +0.024 C 
ATOM     86  CB  PRO A  13      89.095  66.100  21.864  0.00  0.00    +0.030 C 
ATOM     87  CA  PRO A  13      89.340  65.926  20.358  0.00  0.00    +0.140 C 
ATOM     88  O   ASP A  12      90.683  65.249  18.065  0.00  0.00    -0.273 OA
BRANCH  87  89
ATOM     89  C   PRO A  13      89.438  67.274  19.631  0.00  0.00    +0.227 C 
ATOM     90  O   PRO A  13      88.512  67.635  18.910  0.00  0.00    -0.286 OA
ENDBRANCH  87  89
ENDBRANCH  81  82
BRANCH  81  91
ATOM     91  CB  ASP A  12      93.487  64.500  18.446  0.00  0.00    +0.143 C 
BRANCH  91  92
ATOM     92  CG  ASP A  12      93.950  65.738  19.179  0.00  0.00    +0.367 C 
ATOM     93  OD2 ASP A  12      94.343  65.619  20.341  0.00  0.00    -0.246 OA
ATOM     94  OD1 ASP A  12      93.907  66.838  18.608  0.00  0.00    -0.246 OA
ENDBRANCH  91  92
ENDBRANCH  81  91
ENDBRANCH  79  81
ENDBRANCH  76  77
BRANCH  76  95
ATOM     95  CB  ASP A  11      89.638  60.274  18.004  0.00  0.00    +0.143 C 
BRANCH  95  96
ATOM     96  CG  ASP A  11      89.106  59.654  16.739  0.00  0.00    +0.367 C 
ATOM     97  OD2 ASP A  11      87.885  59.398  16.691  0.00  0.00    -0.246 OA
ATOM     98  OD1 ASP A  11      89.866  59.437  15.800  0.00  0.00    -0.246 OA
ENDBRANCH  95  96
ENDBRANCH  76  95
ENDBRANCH  73  76
ENDBRANCH  71  72
ENDBRANCH  68  71
ENDBRANCH  66  67
BRANCH  66  99
ATOM     99  CB  ARG A   9      91.752  53.643  20.172  0.00  0.00    +0.033 C 
BRANCH  99 100
ATOM    100  CG  ARG A   9      92.443  52.935  19.058  0.00  0.00    +0.045 C 
BRANCH 100 101
ATOM    101  CD  ARG A   9      92.980  51.556  19.463  0.00  0.00    +0.174 C 
BRANCH 101 102
ATOM    102  NE  ARG A   9      94.111  51.213  18.592  0.00  0.00    -0.265 N 
ATOM    103  CZ  ARG A   9      94.882  50.133  18.720  0.00  0.00    +0.342 C 
ATOM    104  NH2 ARG A   9      94.659  49.242  19.683  0.00  0.00    -0.292 N 
ATOM    105 HH21 ARG A   9      93.874  49.383  20.350  0.00  0.00    +0.255 HD
ATOM    106 HH22 ARG A   9      95.270  48.405  19.769  0.00  0.00    +0.255 HD
ATOM    107  NH1 ARG A   9      95.885  49.942  17.864  0.00  0.00    -0.292 N 
ATOM    108 HH11 ARG A   9      96.493  49.103  17.954  0.00  0.00    +0.255 HD
ATOM    109 HH12 ARG A   9      96.060  50.632  17.106  0.00  0.00    +0.255 HD
ATOM    110  HE  ARG A   9      94.328  51.865  17.812  0.00  0.00    +0.259 HD
ENDBRANCH 101 102
ENDBRANCH 100 101
ENDBRANCH  99 100
ENDBRANCH  66  99
ENDBRANCH  64  66
ENDBRANCH  61  62
BRANCH  61 111
ATOM    111  CB  LYS A   8      88.718  55.605  16.105  0.00  0.00    +0.029 C 
BRANCH 111 112
ATOM    112  CG  LYS A   8      87.591  55.438  15.060  0.00  0.00    +0.000 C 
BRANCH 112 113
ATOM    113  CD  LYS A   8      86.850  54.059  15.163  0.00  0.00    -0.024 C 
BRANCH 113 114
ATOM    114  CE  LYS A   8      85.325  54.186  14.849  0.00  0.00    -0.086 C 
BRANCH 114 115
ATOM    115  NZ  LYS A   8      84.492  52.980  15.208  0.00  0.00    +0.380 N 
ATOM    116  HZ1 LYS A   8      84.570  52.798  16.229  0.00  0.00    -0.089 HD
ATOM    117  HZ2 LYS A   8      83.498  53.161  14.962  0.00  0.00    -0.089 HD
ATOM    118  HZ3 LYS A   8      84.836  52.153  14.679  0.00  0.00    -0.089 HD
ENDBRANCH 114 115
ENDBRANCH 113 114
ENDBRANCH 112 113
ENDBRANCH 111 112
ENDBRANCH  61 111
ENDBRANCH  59  61
ENDBRANCH   1  57
BRANCH   1 119
ATOM    119  CB  TRP A   7      85.323  58.318  19.908  0.00  0.00    +0.057 C 
BRANCH 119 120
ATOM    120  CG  TRP A   7      84.676  59.656  20.061  0.00  0.00    -0.002 A 
ATOM    121  CD1 TRP A   7      83.382  59.895  20.345  0.00  0.00    +0.068 A 
ATOM    122  NE1 TRP A   7      83.155  61.253  20.413  0.00  0.00    -0.352 N 
ATOM    123  HE1 TRP A   7      82.242  61.703  20.627  0.00  0.00    +0.166 HD
ATOM    124  CE2 TRP A   7      84.323  61.911  20.153  0.00  0.00    +0.056 A 
ATOM    125  CZ2 TRP A   7      84.604  63.286  20.100  0.00  0.00    +0.017 A 
ATOM    126  CH2 TRP A   7      85.897  63.648  19.817  0.00  0.00    +0.001 A 
ATOM    127  CZ3 TRP A   7      86.888  62.690  19.593  0.00  0.00    +0.000 A 
ATOM    128  CE3 TRP A   7      86.608  61.344  19.657  0.00  0.00    +0.001 A 
ATOM    129  CD2 TRP A   7      85.309  60.933  19.937  0.00  0.00    +0.013 A 
ENDBRANCH 119 120
ENDBRANCH   1 119
TORSDOF 50
REMARK  Name = ../refined-set-2016/2i3i/2i3i_pocket.pdb
REMARK  124 active torsions:
REMARK  status: ('A' for Active; 'I' for Inactive)
REMARK    1  A    between atoms: _1  and  _3
REMARK    2  A    between atoms: _3  and  _4
REMARK    3  A    between atoms: _3  and  _6
REMARK    4  A    between atoms: _9  and  _11
REMARK    5  A    between atoms: _11  and  _12
REMARK    6  A    between atoms: _11  and  _14
REMARK    7  A    between atoms: _14  and  _15
REMARK    8  A    between atoms: _18  and  _20
REMARK    9  A    between atoms: _20  and  _21
REMARK   10  A    between atoms: _20  and  _23
REMARK   11  A    between atoms: _23  and  _24
REMARK   12  A    between atoms: _30  and  _32
REMARK   13  A    between atoms: _32  and  _33
REMARK   14  A    between atoms: _32  and  _35
REMARK   15  A    between atoms: _35  and  _36
REMARK   16  A    between atoms: _42  and  _44
REMARK   17  A    between atoms: _44  and  _45
REMARK   18  A    between atoms: _44  and  _47
REMARK   19  A    between atoms: _47  and  _48
REMARK   20  A    between atoms: _53  and  _55
REMARK   21  A    between atoms: _55  and  _56
REMARK   22  A    between atoms: _55  and  _58
REMARK   23  A    between atoms: _58  and  _59
REMARK   24  A    between atoms: _62  and  _64
REMARK   25  A    between atoms: _64  and  _65
REMARK   26  A    between atoms: _64  and  _67
REMARK   27  A    between atoms: _67  and  _68
REMARK   28  A    between atoms: _73  and  _75
REMARK   29  A    between atoms: _75  and  _76
REMARK   30  A    between atoms: _75  and  _78
REMARK   31  A    between atoms: _78  and  _79
REMARK   32  A    between atoms: _82  and  _84
REMARK   33  A    between atoms: _84  and  _85
REMARK   34  A    between atoms: _84  and  _87
REMARK   35  A    between atoms: _87  and  _88
REMARK   36  A    between atoms: _88  and  _89
REMARK   37  A    between atoms: _89  and  _90
REMARK   38  A    between atoms: _90  and  _91
REMARK   39  A    between atoms: _95  and  _97
REMARK   40  A    between atoms: _97  and  _98
REMARK   41  A    between atoms: _97  and  _100
REMARK   42  A    between atoms: _103  and  _105
REMARK   43  A    between atoms: _105  and  _106
REMARK   44  A    between atoms: _105  and  _108
REMARK   45  A    between atoms: _108  and  _109
REMARK   46  A    between atoms: _109  and  _110
REMARK   47  A    between atoms: _110  and  _111
REMARK   48  A    between atoms: _120  and  _122
REMARK   49  A    between atoms: _122  and  _123
REMARK   50  A    between atoms: _122  and  _125
REMARK   51  A    between atoms: _127  and  _129
REMARK   52  A    between atoms: _129  and  _130
REMARK   53  A    between atoms: _129  and  _132
REMARK   54  A    between atoms: _132  and  _133
REMARK   55  A    between atoms: _138  and  _139
REMARK   56  A    between atoms: _141  and  _143
REMARK   57  A    between atoms: _143  and  _144
REMARK   58  A    between atoms: _146  and  _148
REMARK   59  A    between atoms: _148  and  _149
REMARK   60  A    between atoms: _151  and  _153
REMARK   61  A    between atoms: _153  and  _154
REMARK   62  A    between atoms: _153  and  _156
REMARK   63  A    between atoms: _156  and  _157
REMARK   64  A    between atoms: _160  and  _162
REMARK   65  A    between atoms: _162  and  _163
REMARK   66  A    between atoms: _162  and  _165
REMARK   67  A    between atoms: _165  and  _166
REMARK   68  A    between atoms: _166  and  _167
REMARK   69  A    between atoms: _172  and  _174
REMARK   70  A    between atoms: _174  and  _175
REMARK   71  A    between atoms: _174  and  _177
REMARK   72  A    between atoms: _177  and  _178
REMARK   73  A    between atoms: _180  and  _182
REMARK   74  A    between atoms: _182  and  _183
REMARK   75  A    between atoms: _182  and  _185
REMARK   76  A    between atoms: _185  and  _186
REMARK   77  A    between atoms: _196  and  _198
REMARK   78  A    between atoms: _198  and  _199
REMARK   79  A    between atoms: _198  and  _201
REMARK   80  A    between atoms: _201  and  _202
REMARK   81  A    between atoms: _202  and  _203
REMARK   82  A    between atoms: _203  and  _204
REMARK   83  A    between atoms: _204  and  _205
REMARK   84  A    between atoms: _209  and  _211
REMARK   85  A    between atoms: _211  and  _212
REMARK   86  A    between atoms: _211  and  _214
REMARK   87  A    between atoms: _214  and  _215
REMARK   88  A    between atoms: _215  and  _216
REMARK   89  A    between atoms: _216  and  _217
REMARK   90  A    between atoms: _226  and  _228
REMARK   91  A    between atoms: _228  and  _229
REMARK   92  A    between atoms: _231  and  _233
REMARK   93  A    between atoms: _233  and  _234
REMARK   94  A    between atoms: _233  and  _236
REMARK   95  A    between atoms: _236  and  _237
REMARK   96  A    between atoms: _240  and  _242
REMARK   97  A    between atoms: _242  and  _243
REMARK   98  A    between atoms: _242  and  _245
REMARK   99  A    between atoms: _245  and  _246
REMARK  100  A    between atoms: _250  and  _251
REMARK  101  A    between atoms: _256  and  _258
REMARK  102  A    between atoms: _258  and  _259
REMARK  103  A    between atoms: _258  and  _261
REMARK  104  A    between atoms: _261  and  _262
REMARK  105  A    between atoms: _262  and  _263
REMARK  106  A    between atoms: _266  and  _268
REMARK  107  A    between atoms: _268  and  _269
REMARK  108  A    between atoms: _268  and  _271
REMARK  109  A    between atoms: _271  and  _272
REMARK  110  A    between atoms: _277  and  _279
REMARK  111  A    between atoms: _279  and  _280
REMARK  112  A    between atoms: _279  and  _282
REMARK  113  A    between atoms: _282  and  _283
REMARK  114  A    between atoms: _283  and  _284
REMARK  115  A    between atoms: _284  and  _285
REMARK  116  A    between atoms: _285  and  _286
REMARK  117  A    between atoms: _290  and  _292
REMARK  118  A    between atoms: _292  and  _293
REMARK  119  A    between atoms: _292  and  _295
REMARK  120  A    between atoms: _295  and  _296
REMARK  121  A    between atoms: _306  and  _308
REMARK  122  A    between atoms: _308  and  _309
REMARK  123  A    between atoms: _308  and  _311
REMARK  124  A    between atoms: _311  and  _312
REMARK                            x       y       z     vdW  Elec       q    Type
REMARK                         _______ _______ _______ _____ _____    ______ ____
ROOT
ATOM      1  C   GLU A   1      87.066  67.611  15.505  0.00  0.00    +0.238 C 
ATOM      2  N   HIS A   2      87.262  68.449  16.521  0.00  0.00    -0.298 N 
ATOM      3  H   HIS A   2      87.989  68.226  17.230  0.00  0.00    +0.150 HD
ATOM      4  O   GLU A   1      86.204  67.798  14.653  0.00  0.00    -0.274 OA
ENDROOT
BRANCH   1   5
ATOM      5  CA  GLU A   1      87.991  66.389  15.431  0.00  0.00    +0.145 C 
BRANCH   5   6
ATOM      6  N   GLU A   1      89.340  66.727  15.877  0.00  0.00    -0.238 NA
ATOM      7  H   GLU A   1      89.726  66.303  16.745  0.00  0.00    +0.142 HD
ENDBRANCH   5   6
BRANCH   5   8
ATOM      8  CB  GLU A   1      87.434  65.221  16.229  0.00  0.00    +0.038 C 
BRANCH   8   9
ATOM      9  CG  GLU A   1      88.276  63.943  16.127  0.00  0.00    +0.116 C 
BRANCH   9  10
ATOM     10  CD  GLU A   1      88.355  63.367  14.719  0.00  0.00    +0.365 C 
ATOM     11  OE2 GLU A   1      89.475  63.026  14.243  0.00  0.00    -0.246 OA
ATOM     12  OE1 GLU A   1      87.290  63.243  14.085  0.00  0.00    -0.246 OA
ENDBRANCH   9  10
ENDBRANCH   8   9
ENDBRANCH   5   8
ENDBRANCH   1   5
BRANCH   2  13
ATOM     13  CA  HIS A   2      86.476  69.678  16.662  0.00  0.00    +0.143 C 
BRANCH  13  14
ATOM     14  C   HIS A   2      86.655  70.557  15.412  0.00  0.00    +0.227 C 
ATOM     15  O   HIS A   2      85.677  70.996  14.803  0.00  0.00    -0.286 OA
ENDBRANCH  13  14
BRANCH  13  16
ATOM     16  CB  HIS A   2      86.867  70.435  17.923  0.00  0.00    +0.075 C 
BRANCH  16  17
ATOM     17  CG  HIS A   2      85.781  71.329  18.457  0.00  0.00    +0.082 A 
ATOM     18  ND1 HIS A   2      85.660  71.626  19.796  0.00  0.00    -0.227 NA
ATOM     19  CE1 HIS A   2      84.621  72.432  19.969  0.00  0.00    +0.199 A 
ATOM     20  NE2 HIS A   2      84.050  72.648  18.796  0.00  0.00    -0.221 NA
ATOM     21  CD2 HIS A   2      84.763  71.979  17.831  0.00  0.00    +0.115 A 
ENDBRANCH  16  17
ENDBRANCH  13  16
ENDBRANCH   2  13
TORSDOF 9
REMARK  Name = ../refined-set-2016/2i3i/2i3i_pocket.pdb
REMARK  124 active torsions:
REMARK  status: ('A' for Active; 'I' for Inactive)
REMARK    1  A    between atoms: _1  and  _3
REMARK    2  A    between atoms: _3  and  _4
REMARK    3  A    between atoms: _3  and  _6
REMARK    4  A    between atoms: _9  and  _11
REMARK    5  A    between atoms: _11  and  _12
REMARK    6  A    between atoms: _11  and  _14
REMARK    7  A    between atoms: _14  and  _15
REMARK    8  A    between atoms: _18  and  _20
REMARK    9  A    between atoms: _20  and  _21
REMARK   10  A    between atoms: _20  and  _23
REMARK   11  A    between atoms: _23  and  _24
REMARK   12  A    between atoms: _30  and  _32
REMARK   13  A    between atoms: _32  and  _33
REMARK   14  A    between atoms: _32  and  _35
REMARK   15  A    between atoms: _35  and  _36
REMARK   16  A    between atoms: _42  and  _44
REMARK   17  A    between atoms: _44  and  _45
REMARK   18  A    between atoms: _44  and  _47
REMARK   19  A    between atoms: _47  and  _48
REMARK   20  A    between atoms: _53  and  _55
REMARK   21  A    between atoms: _55  and  _56
REMARK   22  A    between atoms: _55  and  _58
REMARK   23  A    between atoms: _58  and  _59
REMARK   24  A    between atoms: _62  and  _64
REMARK   25  A    between atoms: _64  and  _65
REMARK   26  A    between atoms: _64  and  _67
REMARK   27  A    between atoms: _67  and  _68
REMARK   28  A    between atoms: _73  and  _75
REMARK   29  A    between atoms: _75  and  _76
REMARK   30  A    between atoms: _75  and  _78
REMARK   31  A    between atoms: _78  and  _79
REMARK   32  A    between atoms: _82  and  _84
REMARK   33  A    between atoms: _84  and  _85
REMARK   34  A    between atoms: _84  and  _87
REMARK   35  A    between atoms: _87  and  _88
REMARK   36  A    between atoms: _88  and  _89
REMARK   37  A    between atoms: _89  and  _90
REMARK   38  A    between atoms: _90  and  _91
REMARK   39  A    between atoms: _95  and  _97
REMARK   40  A    between atoms: _97  and  _98
REMARK   41  A    between atoms: _97  and  _100
REMARK   42  A    between atoms: _103  and  _105
REMARK   43  A    between atoms: _105  and  _106
REMARK   44  A    between atoms: _105  and  _108
REMARK   45  A    between atoms: _108  and  _109
REMARK   46  A    between atoms: _109  and  _110
REMARK   47  A    between atoms: _110  and  _111
REMARK   48  A    between atoms: _120  and  _122
REMARK   49  A    between atoms: _122  and  _123
REMARK   50  A    between atoms: _122  and  _125
REMARK   51  A    between atoms: _127  and  _129
REMARK   52  A    between atoms: _129  and  _130
REMARK   53  A    between atoms: _129  and  _132
REMARK   54  A    between atoms: _132  and  _133
REMARK   55  A    between atoms: _138  and  _139
REMARK   56  A    between atoms: _141  and  _143
REMARK   57  A    between atoms: _143  and  _144
REMARK   58  A    between atoms: _146  and  _148
REMARK   59  A    between atoms: _148  and  _149
REMARK   60  A    between atoms: _151  and  _153
REMARK   61  A    between atoms: _153  and  _154
REMARK   62  A    between atoms: _153  and  _156
REMARK   63  A    between atoms: _156  and  _157
REMARK   64  A    between atoms: _160  and  _162
REMARK   65  A    between atoms: _162  and  _163
REMARK   66  A    between atoms: _162  and  _165
REMARK   67  A    between atoms: _165  and  _166
REMARK   68  A    between atoms: _166  and  _167
REMARK   69  A    between atoms: _172  and  _174
REMARK   70  A    between atoms: _174  and  _175
REMARK   71  A    between atoms: _174  and  _177
REMARK   72  A    between atoms: _177  and  _178
REMARK   73  A    between atoms: _180  and  _182
REMARK   74  A    between atoms: _182  and  _183
REMARK   75  A    between atoms: _182  and  _185
REMARK   76  A    between atoms: _185  and  _186
REMARK   77  A    between atoms: _196  and  _198
REMARK   78  A    between atoms: _198  and  _199
REMARK   79  A    between atoms: _198  and  _201
REMARK   80  A    between atoms: _201  and  _202
REMARK   81  A    between atoms: _202  and  _203
REMARK   82  A    between atoms: _203  and  _204
REMARK   83  A    between atoms: _204  and  _205
REMARK   84  A    between atoms: _209  and  _211
REMARK   85  A    between atoms: _211  and  _212
REMARK   86  A    between atoms: _211  and  _214
REMARK   87  A    between atoms: _214  and  _215
REMARK   88  A    between atoms: _215  and  _216
REMARK   89  A    between atoms: _216  and  _217
REMARK   90  A    between atoms: _226  and  _228
REMARK   91  A    between atoms: _228  and  _229
REMARK   92  A    between atoms: _231  and  _233
REMARK   93  A    between atoms: _233  and  _234
REMARK   94  A    between atoms: _233  and  _236
REMARK   95  A    between atoms: _236  and  _237
REMARK   96  A    between atoms: _240  and  _242
REMARK   97  A    between atoms: _242  and  _243
REMARK   98  A    between atoms: _242  and  _245
REMARK   99  A    between atoms: _245  and  _246
REMARK  100  A    between atoms: _250  and  _251
REMARK  101  A    between atoms: _256  and  _258
REMARK  102  A    between atoms: _258  and  _259
REMARK  103  A    between atoms: _258  and  _261
REMARK  104  A    between atoms: _261  and  _262
REMARK  105  A    between atoms: _262  and  _263
REMARK  106  A    between atoms: _266  and  _268
REMARK  107  A    between atoms: _268  and  _269
REMARK  108  A    between atoms: _268  and  _271
REMARK  109  A    between atoms: _271  and  _272
REMARK  110  A    between atoms: _277  and  _279
REMARK  111  A    between atoms: _279  and  _280
REMARK  112  A    between atoms: _279  and  _282
REMARK  113  A    between atoms: _282  and  _283
REMARK  114  A    between atoms: _283  and  _284
REMARK  115  A    between atoms: _284  and  _285
REMARK  116  A    between atoms: _285  and  _286
REMARK  117  A    between atoms: _290  and  _292
REMARK  118  A    between atoms: _292  and  _293
REMARK  119  A    between atoms: _292  and  _295
REMARK  120  A    between atoms: _295  and  _296
REMARK  121  A    between atoms: _306  and  _308
REMARK  122  A    between atoms: _308  and  _309
REMARK  123  A    between atoms: _308  and  _311
REMARK  124  A    between atoms: _311  and  _312
REMARK                            x       y       z     vdW  Elec       q    Type
REMARK                         _______ _______ _______ _____ _____    ______ ____
ROOT
ATOM      1  CA  TRP A   2      83.730  68.886  11.733  0.00  0.00    +0.153 C 
ENDROOT
BRANCH   1   3
ATOM      2  C   LYS A   1      86.012  69.113  10.887  0.00  0.00    +0.238 C 
ATOM      3  N   TRP A   2      85.176  68.914  11.901  0.00  0.00    -0.297 N 
ATOM      4  H   TRP A   2      85.571  68.773  12.853  0.00  0.00    +0.150 HD
ATOM      5  O   LYS A   1      85.656  69.501   9.783  0.00  0.00    -0.274 OA
BRANCH   2   6
ATOM      6  CA  LYS A   1      87.477  68.824  11.182  0.00  0.00    +0.145 C 
BRANCH   6   7
ATOM      7  N   LYS A   1      87.942  69.556  12.379  0.00  0.00    -0.238 NA
ATOM      8  H   LYS A   1      88.376  69.020  13.158  0.00  0.00    +0.142 HD
ENDBRANCH   6   7
BRANCH   6   9
ATOM      9  CB  LYS A   1      87.612  67.302  11.353  0.00  0.00    +0.026 C 
BRANCH   9  10
ATOM     10  CG  LYS A   1      88.861  66.671  10.759  0.00  0.00    -0.000 C 
BRANCH  10  11
ATOM     11  CD  LYS A   1      88.859  65.129  10.954  0.00  0.00    -0.024 C 
BRANCH  11  12
ATOM     12  CE  LYS A   1      90.279  64.523  10.876  0.00  0.00    -0.086 C 
BRANCH  12  13
ATOM     13  NZ  LYS A   1      90.478  63.229  11.652  0.00  0.00    +0.380 N 
ATOM     14  HZ1 LYS A   1      90.283  63.397  12.660  0.00  0.00    -0.089 HD
ATOM     15  HZ2 LYS A   1      91.459  62.904  11.537  0.00  0.00    -0.089 HD
ATOM     16  HZ3 LYS A   1      89.827  62.504  11.288  0.00  0.00    -0.089 HD
ENDBRANCH  12  13
ENDBRANCH  11  12
ENDBRANCH  10  11
ENDBRANCH   9  10
ENDBRANCH   6   9
ENDBRANCH   2   6
ENDBRANCH   1   3
BRANCH   1  17
ATOM     17  C   TRP A   2      83.036  70.222  11.974  0.00  0.00    +0.241 C 
ATOM     18  N   PHE A   3      83.589  71.030  12.869  0.00  0.00    -0.298 N 
ATOM     19  H   PHE A   3      84.487  70.750  13.313  0.00  0.00    +0.150 HD
ATOM     20  O   TRP A   2      82.006  70.501  11.366  0.00  0.00    -0.273 OA
BRANCH  18  21
ATOM     21  CA  PHE A   3      82.974  72.307  13.253  0.00  0.00    +0.141 C 
BRANCH  21  22
ATOM     22  C   PHE A   3      83.997  73.440  13.218  0.00  0.00    +0.227 C 
ATOM     23  O   PHE A   3      84.270  74.060  14.256  0.00  0.00    -0.286 OA
ENDBRANCH  21  22
BRANCH  21  24
ATOM     24  CB  PHE A   3      82.383  72.211  14.667  0.00  0.00    +0.054 C 
BRANCH  24  25
ATOM     25  CG  PHE A   3      81.626  70.945  14.922  0.00  0.00    -0.020 A 
ATOM     26  CD2 PHE A   3      82.049  70.053  15.907  0.00  0.00    -0.004 A 
ATOM     27  CE2 PHE A   3      81.359  68.872  16.149  0.00  0.00    -0.000 A 
ATOM     28  CZ  PHE A   3      80.234  68.576  15.427  0.00  0.00    -0.000 A 
ATOM     29  CE1 PHE A   3      79.772  69.475  14.452  0.00  0.00    -0.000 A 
ATOM     30  CD1 PHE A   3      80.475  70.650  14.203  0.00  0.00    -0.004 A 
ENDBRANCH  24  25
ENDBRANCH  21  24
ENDBRANCH  18  21
ENDBRANCH   1  17
BRANCH   1  31
ATOM     31  CB  TRP A   2      83.136  67.820  12.652  0.00  0.00    +0.057 C 
BRANCH  31  32
ATOM     32  CG  TRP A   2      83.617  66.457  12.316  0.00  0.00    -0.002 A 
ATOM     33  CD1 TRP A   2      84.474  65.672  13.051  0.00  0.00    +0.068 A 
ATOM     34  NE1 TRP A   2      84.687  64.473  12.402  0.00  0.00    -0.352 N 
ATOM     35  HE1 TRP A   2      85.280  63.693  12.750  0.00  0.00    +0.166 HD
ATOM     36  CE2 TRP A   2      83.988  64.479  11.223  0.00  0.00    +0.056 A 
ATOM     37  CZ2 TRP A   2      83.888  63.502  10.237  0.00  0.00    +0.017 A 
ATOM     38  CH2 TRP A   2      83.093  63.776   9.156  0.00  0.00    +0.001 A 
ATOM     39  CZ3 TRP A   2      82.401  64.991   9.041  0.00  0.00    +0.000 A 
ATOM     40  CE3 TRP A   2      82.491  65.959  10.026  0.00  0.00    +0.001 A 
ATOM     41  CD2 TRP A   2      83.295  65.708  11.141  0.00  0.00    +0.013 A 
ENDBRANCH  31  32
ENDBRANCH   1  31
TORSDOF 15
REMARK  Name = ../refined-set-2016/2i3i/2i3i_pocket.pdb
REMARK  124 active torsions:
REMARK  status: ('A' for Active; 'I' for Inactive)
REMARK    1  A    between atoms: _1  and  _3
REMARK    2  A    between atoms: _3  and  _4
REMARK    3  A    between atoms: _3  and  _6
REMARK    4  A    between atoms: _9  and  _11
REMARK    5  A    between atoms: _11  and  _12
REMARK    6  A    between atoms: _11  and  _14
REMARK    7  A    between atoms: _14  and  _15
REMARK    8  A    between atoms: _18  and  _20
REMARK    9  A    between atoms: _20  and  _21
REMARK   10  A    between atoms: _20  and  _23
REMARK   11  A    between atoms: _23  and  _24
REMARK   12  A    between atoms: _30  and  _32
REMARK   13  A    between atoms: _32  and  _33
REMARK   14  A    between atoms: _32  and  _35
REMARK   15  A    between atoms: _35  and  _36
REMARK   16  A    between atoms: _42  and  _44
REMARK   17  A    between atoms: _44  and  _45
REMARK   18  A    between atoms: _44  and  _47
REMARK   19  A    between atoms: _47  and  _48
REMARK   20  A    between atoms: _53  and  _55
REMARK   21  A    between atoms: _55  and  _56
REMARK   22  A    between atoms: _55  and  _58
REMARK   23  A    between atoms: _58  and  _59
REMARK   24  A    between atoms: _62  and  _64
REMARK   25  A    between atoms: _64  and  _65
REMARK   26  A    between atoms: _64  and  _67
REMARK   27  A    between atoms: _67  and  _68
REMARK   28  A    between atoms: _73  and  _75
REMARK   29  A    between atoms: _75  and  _76
REMARK   30  A    between atoms: _75  and  _78
REMARK   31  A    between atoms: _78  and  _79
REMARK   32  A    between atoms: _82  and  _84
REMARK   33  A    between atoms: _84  and  _85
REMARK   34  A    between atoms: _84  and  _87
REMARK   35  A    between atoms: _87  and  _88
REMARK   36  A    between atoms: _88  and  _89
REMARK   37  A    between atoms: _89  and  _90
REMARK   38  A    between atoms: _90  and  _91
REMARK   39  A    between atoms: _95  and  _97
REMARK   40  A    between atoms: _97  and  _98
REMARK   41  A    between atoms: _97  and  _100
REMARK   42  A    between atoms: _103  and  _105
REMARK   43  A    between atoms: _105  and  _106
REMARK   44  A    between atoms: _105  and  _108
REMARK   45  A    between atoms: _108  and  _109
REMARK   46  A    between atoms: _109  and  _110
REMARK   47  A    between atoms: _110  and  _111
REMARK   48  A    between atoms: _120  and  _122
REMARK   49  A    between atoms: _122  and  _123
REMARK   50  A    between atoms: _122  and  _125
REMARK   51  A    between atoms: _127  and  _129
REMARK   52  A    between atoms: _129  and  _130
REMARK   53  A    between atoms: _129  and  _132
REMARK   54  A    between atoms: _132  and  _133
REMARK   55  A    between atoms: _138  and  _139
REMARK   56  A    between atoms: _141  and  _143
REMARK   57  A    between atoms: _143  and  _144
REMARK   58  A    between atoms: _146  and  _148
REMARK   59  A    between atoms: _148  and  _149
REMARK   60  A    between atoms: _151  and  _153
REMARK   61  A    between atoms: _153  and  _154
REMARK   62  A    between atoms: _153  and  _156
REMARK   63  A    between atoms: _156  and  _157
REMARK   64  A    between atoms: _160  and  _162
REMARK   65  A    between atoms: _162  and  _163
REMARK   66  A    between atoms: _162  and  _165
REMARK   67  A    between atoms: _165  and  _166
REMARK   68  A    between atoms: _166  and  _167
REMARK   69  A    between atoms: _172  and  _174
REMARK   70  A    between atoms: _174  and  _175
REMARK   71  A    between atoms: _174  and  _177
REMARK   72  A    between atoms: _177  and  _178
REMARK   73  A    between atoms: _180  and  _182
REMARK   74  A    between atoms: _182  and  _183
REMARK   75  A    between atoms: _182  and  _185
REMARK   76  A    between atoms: _185  and  _186
REMARK   77  A    between atoms: _196  and  _198
REMARK   78  A    between atoms: _198  and  _199
REMARK   79  A    between atoms: _198  and  _201
REMARK   80  A    between atoms: _201  and  _202
REMARK   81  A    between atoms: _202  and  _203
REMARK   82  A    between atoms: _203  and  _204
REMARK   83  A    between atoms: _204  and  _205
REMARK   84  A    between atoms: _209  and  _211
REMARK   85  A    between atoms: _211  and  _212
REMARK   86  A    between atoms: _211  and  _214
REMARK   87  A    between atoms: _214  and  _215
REMARK   88  A    between atoms: _215  and  _216
REMARK   89  A    between atoms: _216  and  _217
REMARK   90  A    between atoms: _226  and  _228
REMARK   91  A    between atoms: _228  and  _229
REMARK   92  A    between atoms: _231  and  _233
REMARK   93  A    between atoms: _233  and  _234
REMARK   94  A    between atoms: _233  and  _236
REMARK   95  A    between atoms: _236  and  _237
REMARK   96  A    between atoms: _240  and  _242
REMARK   97  A    between atoms: _242  and  _243
REMARK   98  A    between atoms: _242  and  _245
REMARK   99  A    between atoms: _245  and  _246
REMARK  100  A    between atoms: _250  and  _251
REMARK  101  A    between atoms: _256  and  _258
REMARK  102  A    between atoms: _258  and  _259
REMARK  103  A    between atoms: _258  and  _261
REMARK  104  A    between atoms: _261  and  _262
REMARK  105  A    between atoms: _262  and  _263
REMARK  106  A    between atoms: _266  and  _268
REMARK  107  A    between atoms: _268  and  _269
REMARK  108  A    between atoms: _268  and  _271
REMARK  109  A    between atoms: _271  and  _272
REMARK  110  A    between atoms: _277  and  _279
REMARK  111  A    between atoms: _279  and  _280
REMARK  112  A    between atoms: _279  and  _282
REMARK  113  A    between atoms: _282  and  _283
REMARK  114  A    between atoms: _283  and  _284
REMARK  115  A    between atoms: _284  and  _285
REMARK  116  A    between atoms: _285  and  _286
REMARK  117  A    between atoms: _290  and  _292
REMARK  118  A    between atoms: _292  and  _293
REMARK  119  A    between atoms: _292  and  _295
REMARK  120  A    between atoms: _295  and  _296
REMARK  121  A    between atoms: _306  and  _308
REMARK  122  A    between atoms: _308  and  _309
REMARK  123  A    between atoms: _308  and  _311
REMARK  124  A    between atoms: _311  and  _312
REMARK                            x       y       z     vdW  Elec       q    Type
REMARK                         _______ _______ _______ _____ _____    ______ ____
ROOT
ATOM      1  O   HOH     1      91.774  62.920  15.391  0.00  0.00    +0.000 OA
ENDROOT
TORSDOF 0
REMARK  Name = ../refined-set-2016/2i3i/2i3i_pocket.pdb
REMARK  124 active torsions:
REMARK  status: ('A' for Active; 'I' for Inactive)
REMARK    1  A    between atoms: _1  and  _3
REMARK    2  A    between atoms: _3  and  _4
REMARK    3  A    between atoms: _3  and  _6
REMARK    4  A    between atoms: _9  and  _11
REMARK    5  A    between atoms: _11  and  _12
REMARK    6  A    between atoms: _11  and  _14
REMARK    7  A    between atoms: _14  and  _15
REMARK    8  A    between atoms: _18  and  _20
REMARK    9  A    between atoms: _20  and  _21
REMARK   10  A    between atoms: _20  and  _23
REMARK   11  A    between atoms: _23  and  _24
REMARK   12  A    between atoms: _30  and  _32
REMARK   13  A    between atoms: _32  and  _33
REMARK   14  A    between atoms: _32  and  _35
REMARK   15  A    between atoms: _35  and  _36
REMARK   16  A    between atoms: _42  and  _44
REMARK   17  A    between atoms: _44  and  _45
REMARK   18  A    between atoms: _44  and  _47
REMARK   19  A    between atoms: _47  and  _48
REMARK   20  A    between atoms: _53  and  _55
REMARK   21  A    between atoms: _55  and  _56
REMARK   22  A    between atoms: _55  and  _58
REMARK   23  A    between atoms: _58  and  _59
REMARK   24  A    between atoms: _62  and  _64
REMARK   25  A    between atoms: _64  and  _65
REMARK   26  A    between atoms: _64  and  _67
REMARK   27  A    between atoms: _67  and  _68
REMARK   28  A    between atoms: _73  and  _75
REMARK   29  A    between atoms: _75  and  _76
REMARK   30  A    between atoms: _75  and  _78
REMARK   31  A    between atoms: _78  and  _79
REMARK   32  A    between atoms: _82  and  _84
REMARK   33  A    between atoms: _84  and  _85
REMARK   34  A    between atoms: _84  and  _87
REMARK   35  A    between atoms: _87  and  _88
REMARK   36  A    between atoms: _88  and  _89
REMARK   37  A    between atoms: _89  and  _90
REMARK   38  A    between atoms: _90  and  _91
REMARK   39  A    between atoms: _95  and  _97
REMARK   40  A    between atoms: _97  and  _98
REMARK   41  A    between atoms: _97  and  _100
REMARK   42  A    between atoms: _103  and  _105
REMARK   43  A    between atoms: _105  and  _106
REMARK   44  A    between atoms: _105  and  _108
REMARK   45  A    between atoms: _108  and  _109
REMARK   46  A    between atoms: _109  and  _110
REMARK   47  A    between atoms: _110  and  _111
REMARK   48  A    between atoms: _120  and  _122
REMARK   49  A    between atoms: _122  and  _123
REMARK   50  A    between atoms: _122  and  _125
REMARK   51  A    between atoms: _127  and  _129
REMARK   52  A    between atoms: _129  and  _130
REMARK   53  A    between atoms: _129  and  _132
REMARK   54  A    between atoms: _132  and  _133
REMARK   55  A    between atoms: _138  and  _139
REMARK   56  A    between atoms: _141  and  _143
REMARK   57  A    between atoms: _143  and  _144
REMARK   58  A    between atoms: _146  and  _148
REMARK   59  A    between atoms: _148  and  _149
REMARK   60  A    between atoms: _151  and  _153
REMARK   61  A    between atoms: _153  and  _154
REMARK   62  A    between atoms: _153  and  _156
REMARK   63  A    between atoms: _156  and  _157
REMARK   64  A    between atoms: _160  and  _162
REMARK   65  A    between atoms: _162  and  _163
REMARK   66  A    between atoms: _162  and  _165
REMARK   67  A    between atoms: _165  and  _166
REMARK   68  A    between atoms: _166  and  _167
REMARK   69  A    between atoms: _172  and  _174
REMARK   70  A    between atoms: _174  and  _175
REMARK   71  A    between atoms: _174  and  _177
REMARK   72  A    between atoms: _177  and  _178
REMARK   73  A    between atoms: _180  and  _182
REMARK   74  A    between atoms: _182  and  _183
REMARK   75  A    between atoms: _182  and  _185
REMARK   76  A    between atoms: _185  and  _186
REMARK   77  A    between atoms: _196  and  _198
REMARK   78  A    between atoms: _198  and  _199
REMARK   79  A    between atoms: _198  and  _201
REMARK   80  A    between atoms: _201  and  _202
REMARK   81  A    between atoms: _202  and  _203
REMARK   82  A    between atoms: _203  and  _204
REMARK   83  A    between atoms: _204  and  _205
REMARK   84  A    between atoms: _209  and  _211
REMARK   85  A    between atoms: _211  and  _212
REMARK   86  A    between atoms: _211  and  _214
REMARK   87  A    between atoms: _214  and  _215
REMARK   88  A    between atoms: _215  and  _216
REMARK   89  A    between atoms: _216  and  _217
REMARK   90  A    between atoms: _226  and  _228
REMARK   91  A    between atoms: _228  and  _229
REMARK   92  A    between atoms: _231  and  _233
REMARK   93  A    between atoms: _233  and  _234
REMARK   94  A    between atoms: _233  and  _236
REMARK   95  A    between atoms: _236  and  _237
REMARK   96  A    between atoms: _240  and  _242
REMARK   97  A    between atoms: _242  and  _243
REMARK   98  A    between atoms: _242  and  _245
REMARK   99  A    between atoms: _245  and  _246
REMARK  100  A    between atoms: _250  and  _251
REMARK  101  A    between atoms: _256  and  _258
REMARK  102  A    between atoms: _258  and  _259
REMARK  103  A    between atoms: _258  and  _261
REMARK  104  A    between atoms: _261  and  _262
REMARK  105  A    between atoms: _262  and  _263
REMARK  106  A    between atoms: _266  and  _268
REMARK  107  A    between atoms: _268  and  _269
REMARK  108  A    between atoms: _268  and  _271
REMARK  109  A    between atoms: _271  and  _272
REMARK  110  A    between atoms: _277  and  _279
REMARK  111  A    between atoms: _279  and  _280
REMARK  112  A    between atoms: _279  and  _282
REMARK  113  A    between atoms: _282  and  _283
REMARK  114  A    between atoms: _283  and  _284
REMARK  115  A    between atoms: _284  and  _285
REMARK  116  A    between atoms: _285  and  _286
REMARK  117  A    between atoms: _290  and  _292
REMARK  118  A    between atoms: _292  and  _293
REMARK  119  A    between atoms: _292  and  _295
REMARK  120  A    between atoms: _295  and  _296
REMARK  121  A    between atoms: _306  and  _308
REMARK  122  A    between atoms: _308  and  _309
REMARK  123  A    between atoms: _308  and  _311
REMARK  124  A    between atoms: _311  and  _312
REMARK                            x       y       z     vdW  Elec       q    Type
REMARK                         _______ _______ _______ _____ _____    ______ ____
ROOT
ATOM      1  O   HOH     1      83.253  54.513  19.604  0.00  0.00    +0.000 OA
ENDROOT
TORSDOF 0
REMARK  Name = ../refined-set-2016/2i3i/2i3i_pocket.pdb
REMARK  124 active torsions:
REMARK  status: ('A' for Active; 'I' for Inactive)
REMARK    1  A    between atoms: _1  and  _3
REMARK    2  A    between atoms: _3  and  _4
REMARK    3  A    between atoms: _3  and  _6
REMARK    4  A    between atoms: _9  and  _11
REMARK    5  A    between atoms: _11  and  _12
REMARK    6  A    between atoms: _11  and  _14
REMARK    7  A    between atoms: _14  and  _15
REMARK    8  A    between atoms: _18  and  _20
REMARK    9  A    between atoms: _20  and  _21
REMARK   10  A    between atoms: _20  and  _23
REMARK   11  A    between atoms: _23  and  _24
REMARK   12  A    between atoms: _30  and  _32
REMARK   13  A    between atoms: _32  and  _33
REMARK   14  A    between atoms: _32  and  _35
REMARK   15  A    between atoms: _35  and  _36
REMARK   16  A    between atoms: _42  and  _44
REMARK   17  A    between atoms: _44  and  _45
REMARK   18  A    between atoms: _44  and  _47
REMARK   19  A    between atoms: _47  and  _48
REMARK   20  A    between atoms: _53  and  _55
REMARK   21  A    between atoms: _55  and  _56
REMARK   22  A    between atoms: _55  and  _58
REMARK   23  A    between atoms: _58  and  _59
REMARK   24  A    between atoms: _62  and  _64
REMARK   25  A    between atoms: _64  and  _65
REMARK   26  A    between atoms: _64  and  _67
REMARK   27  A    between atoms: _67  and  _68
REMARK   28  A    between atoms: _73  and  _75
REMARK   29  A    between atoms: _75  and  _76
REMARK   30  A    between atoms: _75  and  _78
REMARK   31  A    between atoms: _78  and  _79
REMARK   32  A    between atoms: _82  and  _84
REMARK   33  A    between atoms: _84  and  _85
REMARK   34  A    between atoms: _84  and  _87
REMARK   35  A    between atoms: _87  and  _88
REMARK   36  A    between atoms: _88  and  _89
REMARK   37  A    between atoms: _89  and  _90
REMARK   38  A    between atoms: _90  and  _91
REMARK   39  A    between atoms: _95  and  _97
REMARK   40  A    between atoms: _97  and  _98
REMARK   41  A    between atoms: _97  and  _100
REMARK   42  A    between atoms: _103  and  _105
REMARK   43  A    between atoms: _105  and  _106
REMARK   44  A    between atoms: _105  and  _108
REMARK   45  A    between atoms: _108  and  _109
REMARK   46  A    between atoms: _109  and  _110
REMARK   47  A    between atoms: _110  and  _111
REMARK   48  A    between atoms: _120  and  _122
REMARK   49  A    between atoms: _122  and  _123
REMARK   50  A    between atoms: _122  and  _125
REMARK   51  A    between atoms: _127  and  _129
REMARK   52  A    between atoms: _129  and  _130
REMARK   53  A    between atoms: _129  and  _132
REMARK   54  A    between atoms: _132  and  _133
REMARK   55  A    between atoms: _138  and  _139
REMARK   56  A    between atoms: _141  and  _143
REMARK   57  A    between atoms: _143  and  _144
REMARK   58  A    between atoms: _146  and  _148
REMARK   59  A    between atoms: _148  and  _149
REMARK   60  A    between atoms: _151  and  _153
REMARK   61  A    between atoms: _153  and  _154
REMARK   62  A    between atoms: _153  and  _156
REMARK   63  A    between atoms: _156  and  _157
REMARK   64  A    between atoms: _160  and  _162
REMARK   65  A    between atoms: _162  and  _163
REMARK   66  A    between atoms: _162  and  _165
REMARK   67  A    between atoms: _165  and  _166
REMARK   68  A    between atoms: _166  and  _167
REMARK   69  A    between atoms: _172  and  _174
REMARK   70  A    between atoms: _174  and  _175
REMARK   71  A    between atoms: _174  and  _177
REMARK   72  A    between atoms: _177  and  _178
REMARK   73  A    between atoms: _180  and  _182
REMARK   74  A    between atoms: _182  and  _183
REMARK   75  A    between atoms: _182  and  _185
REMARK   76  A    between atoms: _185  and  _186
REMARK   77  A    between atoms: _196  and  _198
REMARK   78  A    between atoms: _198  and  _199
REMARK   79  A    between atoms: _198  and  _201
REMARK   80  A    between atoms: _201  and  _202
REMARK   81  A    between atoms: _202  and  _203
REMARK   82  A    between atoms: _203  and  _204
REMARK   83  A    between atoms: _204  and  _205
REMARK   84  A    between atoms: _209  and  _211
REMARK   85  A    between atoms: _211  and  _212
REMARK   86  A    between atoms: _211  and  _214
REMARK   87  A    between atoms: _214  and  _215
REMARK   88  A    between atoms: _215  and  _216
REMARK   89  A    between atoms: _216  and  _217
REMARK   90  A    between atoms: _226  and  _228
REMARK   91  A    between atoms: _228  and  _229
REMARK   92  A    between atoms: _231  and  _233
REMARK   93  A    between atoms: _233  and  _234
REMARK   94  A    between atoms: _233  and  _236
REMARK   95  A    between atoms: _236  and  _237
REMARK   96  A    between atoms: _240  and  _242
REMARK   97  A    between atoms: _242  and  _243
REMARK   98  A    between atoms: _242  and  _245
REMARK   99  A    between atoms: _245  and  _246
REMARK  100  A    between atoms: _250  and  _251
REMARK  101  A    between atoms: _256  and  _258
REMARK  102  A    between atoms: _258  and  _259
REMARK  103  A    between atoms: _258  and  _261
REMARK  104  A    between atoms: _261  and  _262
REMARK  105  A    between atoms: _262  and  _263
REMARK  106  A    between atoms: _266  and  _268
REMARK  107  A    between atoms: _268  and  _269
REMARK  108  A    between atoms: _268  and  _271
REMARK  109  A    between atoms: _271  and  _272
REMARK  110  A    between atoms: _277  and  _279
REMARK  111  A    between atoms: _279  and  _280
REMARK  112  A    between atoms: _279  and  _282
REMARK  113  A    between atoms: _282  and  _283
REMARK  114  A    between atoms: _283  and  _284
REMARK  115  A    between atoms: _284  and  _285
REMARK  116  A    between atoms: _285  and  _286
REMARK  117  A    between atoms: _290  and  _292
REMARK  118  A    between atoms: _292  and  _293
REMARK  119  A    between atoms: _292  and  _295
REMARK  120  A    between atoms: _295  and  _296
REMARK  121  A    between atoms: _306  and  _308
REMARK  122  A    between atoms: _308  and  _309
REMARK  123  A    between atoms: _308  and  _311
REMARK  124  A    between atoms: _311  and  _312
REMARK                            x       y       z     vdW  Elec       q    Type
REMARK                         _______ _______ _______ _____ _____    ______ ____
ROOT
ATOM      1  O   HOH     1      72.249  61.827  23.564  0.00  0.00    +0.000 OA
ENDROOT
TORSDOF 0
REMARK  Name = ../refined-set-2016/2i3i/2i3i_pocket.pdb
REMARK  124 active torsions:
REMARK  status: ('A' for Active; 'I' for Inactive)
REMARK    1  A    between atoms: _1  and  _3
REMARK    2  A    between atoms: _3  and  _4
REMARK    3  A    between atoms: _3  and  _6
REMARK    4  A    between atoms: _9  and  _11
REMARK    5  A    between atoms: _11  and  _12
REMARK    6  A    between atoms: _11  and  _14
REMARK    7  A    between atoms: _14  and  _15
REMARK    8  A    between atoms: _18  and  _20
REMARK    9  A    between atoms: _20  and  _21
REMARK   10  A    between atoms: _20  and  _23
REMARK   11  A    between atoms: _23  and  _24
REMARK   12  A    between atoms: _30  and  _32
REMARK   13  A    between atoms: _32  and  _33
REMARK   14  A    between atoms: _32  and  _35
REMARK   15  A    between atoms: _35  and  _36
REMARK   16  A    between atoms: _42  and  _44
REMARK   17  A    between atoms: _44  and  _45
REMARK   18  A    between atoms: _44  and  _47
REMARK   19  A    between atoms: _47  and  _48
REMARK   20  A    between atoms: _53  and  _55
REMARK   21  A    between atoms: _55  and  _56
REMARK   22  A    between atoms: _55  and  _58
REMARK   23  A    between atoms: _58  and  _59
REMARK   24  A    between atoms: _62  and  _64
REMARK   25  A    between atoms: _64  and  _65
REMARK   26  A    between atoms: _64  and  _67
REMARK   27  A    between atoms: _67  and  _68
REMARK   28  A    between atoms: _73  and  _75
REMARK   29  A    between atoms: _75  and  _76
REMARK   30  A    between atoms: _75  and  _78
REMARK   31  A    between atoms: _78  and  _79
REMARK   32  A    between atoms: _82  and  _84
REMARK   33  A    between atoms: _84  and  _85
REMARK   34  A    between atoms: _84  and  _87
REMARK   35  A    between atoms: _87  and  _88
REMARK   36  A    between atoms: _88  and  _89
REMARK   37  A    between atoms: _89  and  _90
REMARK   38  A    between atoms: _90  and  _91
REMARK   39  A    between atoms: _95  and  _97
REMARK   40  A    between atoms: _97  and  _98
REMARK   41  A    between atoms: _97  and  _100
REMARK   42  A    between atoms: _103  and  _105
REMARK   43  A    between atoms: _105  and  _106
REMARK   44  A    between atoms: _105  and  _108
REMARK   45  A    between atoms: _108  and  _109
REMARK   46  A    between atoms: _109  and  _110
REMARK   47  A    between atoms: _110  and  _111
REMARK   48  A    between atoms: _120  and  _122
REMARK   49  A    between atoms: _122  and  _123
REMARK   50  A    between atoms: _122  and  _125
REMARK   51  A    between atoms: _127  and  _129
REMARK   52  A    between atoms: _129  and  _130
REMARK   53  A    between atoms: _129  and  _132
REMARK   54  A    between atoms: _132  and  _133
REMARK   55  A    between atoms: _138  and  _139
REMARK   56  A    between atoms: _141  and  _143
REMARK   57  A    between atoms: _143  and  _144
REMARK   58  A    between atoms: _146  and  _148
REMARK   59  A    between atoms: _148  and  _149
REMARK   60  A    between atoms: _151  and  _153
REMARK   61  A    between atoms: _153  and  _154
REMARK   62  A    between atoms: _153  and  _156
REMARK   63  A    between atoms: _156  and  _157
REMARK   64  A    between atoms: _160  and  _162
REMARK   65  A    between atoms: _162  and  _163
REMARK   66  A    between atoms: _162  and  _165
REMARK   67  A    between atoms: _165  and  _166
REMARK   68  A    between atoms: _166  and  _167
REMARK   69  A    between atoms: _172  and  _174
REMARK   70  A    between atoms: _174  and  _175
REMARK   71  A    between atoms: _174  and  _177
REMARK   72  A    between atoms: _177  and  _178
REMARK   73  A    between atoms: _180  and  _182
REMARK   74  A    between atoms: _182  and  _183
REMARK   75  A    between atoms: _182  and  _185
REMARK   76  A    between atoms: _185  and  _186
REMARK   77  A    between atoms: _196  and  _198
REMARK   78  A    between atoms: _198  and  _199
REMARK   79  A    between atoms: _198  and  _201
REMARK   80  A    between atoms: _201  and  _202
REMARK   81  A    between atoms: _202  and  _203
REMARK   82  A    between atoms: _203  and  _204
REMARK   83  A    between atoms: _204  and  _205
REMARK   84  A    between atoms: _209  and  _211
REMARK   85  A    between atoms: _211  and  _212
REMARK   86  A    between atoms: _211  and  _214
REMARK   87  A    between atoms: _214  and  _215
REMARK   88  A    between atoms: _215  and  _216
REMARK   89  A    between atoms: _216  and  _217
REMARK   90  A    between atoms: _226  and  _228
REMARK   91  A    between atoms: _228  and  _229
REMARK   92  A    between atoms: _231  and  _233
REMARK   93  A    between atoms: _233  and  _234
REMARK   94  A    between atoms: _233  and  _236
REMARK   95  A    between atoms: _236  and  _237
REMARK   96  A    between atoms: _240  and  _242
REMARK   97  A    between atoms: _242  and  _243
REMARK   98  A    between atoms: _242  and  _245
REMARK   99  A    between atoms: _245  and  _246
REMARK  100  A    between atoms: _250  and  _251
REMARK  101  A    between atoms: _256  and  _258
REMARK  102  A    between atoms: _258  and  _259
REMARK  103  A    between atoms: _258  and  _261
REMARK  104  A    between atoms: _261  and  _262
REMARK  105  A    between atoms: _262  and  _263
REMARK  106  A    between atoms: _266  and  _268
REMARK  107  A    between atoms: _268  and  _269
REMARK  108  A    between atoms: _268  and  _271
REMARK  109  A    between atoms: _271  and  _272
REMARK  110  A    between atoms: _277  and  _279
REMARK  111  A    between atoms: _279  and  _280
REMARK  112  A    between atoms: _279  and  _282
REMARK  113  A    between atoms: _282  and  _283
REMARK  114  A    between atoms: _283  and  _284
REMARK  115  A    between atoms: _284  and  _285
REMARK  116  A    between atoms: _285  and  _286
REMARK  117  A    between atoms: _290  and  _292
REMARK  118  A    between atoms: _292  and  _293
REMARK  119  A    between atoms: _292  and  _295
REMARK  120  A    between atoms: _295  and  _296
REMARK  121  A    between atoms: _306  and  _308
REMARK  122  A    between atoms: _308  and  _309
REMARK  123  A    between atoms: _308  and  _311
REMARK  124  A    between atoms: _311  and  _312
REMARK                            x       y       z     vdW  Elec       q    Type
REMARK                         _______ _______ _______ _____ _____    ______ ____
ROOT
ATOM      1  O   HOH     1      87.609  62.078  11.393  0.00  0.00    +0.000 OA
ENDROOT
TORSDOF 0
REMARK  Name = ../refined-set-2016/2i3i/2i3i_pocket.pdb
REMARK  124 active torsions:
REMARK  status: ('A' for Active; 'I' for Inactive)
REMARK    1  A    between atoms: _1  and  _3
REMARK    2  A    between atoms: _3  and  _4
REMARK    3  A    between atoms: _3  and  _6
REMARK    4  A    between atoms: _9  and  _11
REMARK    5  A    between atoms: _11  and  _12
REMARK    6  A    between atoms: _11  and  _14
REMARK    7  A    between atoms: _14  and  _15
REMARK    8  A    between atoms: _18  and  _20
REMARK    9  A    between atoms: _20  and  _21
REMARK   10  A    between atoms: _20  and  _23
REMARK   11  A    between atoms: _23  and  _24
REMARK   12  A    between atoms: _30  and  _32
REMARK   13  A    between atoms: _32  and  _33
REMARK   14  A    between atoms: _32  and  _35
REMARK   15  A    between atoms: _35  and  _36
REMARK   16  A    between atoms: _42  and  _44
REMARK   17  A    between atoms: _44  and  _45
REMARK   18  A    between atoms: _44  and  _47
REMARK   19  A    between atoms: _47  and  _48
REMARK   20  A    between atoms: _53  and  _55
REMARK   21  A    between atoms: _55  and  _56
REMARK   22  A    between atoms: _55  and  _58
REMARK   23  A    between atoms: _58  and  _59
REMARK   24  A    between atoms: _62  and  _64
REMARK   25  A    between atoms: _64  and  _65
REMARK   26  A    between atoms: _64  and  _67
REMARK   27  A    between atoms: _67  and  _68
REMARK   28  A    between atoms: _73  and  _75
REMARK   29  A    between atoms: _75  and  _76
REMARK   30  A    between atoms: _75  and  _78
REMARK   31  A    between atoms: _78  and  _79
REMARK   32  A    between atoms: _82  and  _84
REMARK   33  A    between atoms: _84  and  _85
REMARK   34  A    between atoms: _84  and  _87
REMARK   35  A    between atoms: _87  and  _88
REMARK   36  A    between atoms: _88  and  _89
REMARK   37  A    between atoms: _89  and  _90
REMARK   38  A    between atoms: _90  and  _91
REMARK   39  A    between atoms: _95  and  _97
REMARK   40  A    between atoms: _97  and  _98
REMARK   41  A    between atoms: _97  and  _100
REMARK   42  A    between atoms: _103  and  _105
REMARK   43  A    between atoms: _105  and  _106
REMARK   44  A    between atoms: _105  and  _108
REMARK   45  A    between atoms: _108  and  _109
REMARK   46  A    between atoms: _109  and  _110
REMARK   47  A    between atoms: _110  and  _111
REMARK   48  A    between atoms: _120  and  _122
REMARK   49  A    between atoms: _122  and  _123
REMARK   50  A    between atoms: _122  and  _125
REMARK   51  A    between atoms: _127  and  _129
REMARK   52  A    between atoms: _129  and  _130
REMARK   53  A    between atoms: _129  and  _132
REMARK   54  A    between atoms: _132  and  _133
REMARK   55  A    between atoms: _138  and  _139
REMARK   56  A    between atoms: _141  and  _143
REMARK   57  A    between atoms: _143  and  _144
REMARK   58  A    between atoms: _146  and  _148
REMARK   59  A    between atoms: _148  and  _149
REMARK   60  A    between atoms: _151  and  _153
REMARK   61  A    between atoms: _153  and  _154
REMARK   62  A    between atoms: _153  and  _156
REMARK   63  A    between atoms: _156  and  _157
REMARK   64  A    between atoms: _160  and  _162
REMARK   65  A    between atoms: _162  and  _163
REMARK   66  A    between atoms: _162  and  _165
REMARK   67  A    between atoms: _165  and  _166
REMARK   68  A    between atoms: _166  and  _167
REMARK   69  A    between atoms: _172  and  _174
REMARK   70  A    between atoms: _174  and  _175
REMARK   71  A    between atoms: _174  and  _177
REMARK   72  A    between atoms: _177  and  _178
REMARK   73  A    between atoms: _180  and  _182
REMARK   74  A    between atoms: _182  and  _183
REMARK   75  A    between atoms: _182  and  _185
REMARK   76  A    between atoms: _185  and  _186
REMARK   77  A    between atoms: _196  and  _198
REMARK   78  A    between atoms: _198  and  _199
REMARK   79  A    between atoms: _198  and  _201
REMARK   80  A    between atoms: _201  and  _202
REMARK   81  A    between atoms: _202  and  _203
REMARK   82  A    between atoms: _203  and  _204
REMARK   83  A    between atoms: _204  and  _205
REMARK   84  A    between atoms: _209  and  _211
REMARK   85  A    between atoms: _211  and  _212
REMARK   86  A    between atoms: _211  and  _214
REMARK   87  A    between atoms: _214  and  _215
REMARK   88  A    between atoms: _215  and  _216
REMARK   89  A    between atoms: _216  and  _217
REMARK   90  A    between atoms: _226  and  _228
REMARK   91  A    between atoms: _228  and  _229
REMARK   92  A    between atoms: _231  and  _233
REMARK   93  A    between atoms: _233  and  _234
REMARK   94  A    between atoms: _233  and  _236
REMARK   95  A    between atoms: _236  and  _237
REMARK   96  A    between atoms: _240  and  _242
REMARK   97  A    between atoms: _242  and  _243
REMARK   98  A    between atoms: _242  and  _245
REMARK   99  A    between atoms: _245  and  _246
REMARK  100  A    between atoms: _250  and  _251
REMARK  101  A    between atoms: _256  and  _258
REMARK  102  A    between atoms: _258  and  _259
REMARK  103  A    between atoms: _258  and  _261
REMARK  104  A    between atoms: _261  and  _262
REMARK  105  A    between atoms: _262  and  _263
REMARK  106  A    between atoms: _266  and  _268
REMARK  107  A    between atoms: _268  and  _269
REMARK  108  A    between atoms: _268  and  _271
REMARK  109  A    between atoms: _271  and  _272
REMARK  110  A    between atoms: _277  and  _279
REMARK  111  A    between atoms: _279  and  _280
REMARK  112  A    between atoms: _279  and  _282
REMARK  113  A    between atoms: _282  and  _283
REMARK  114  A    between atoms: _283  and  _284
REMARK  115  A    between atoms: _284  and  _285
REMARK  116  A    between atoms: _285  and  _286
REMARK  117  A    between atoms: _290  and  _292
REMARK  118  A    between atoms: _292  and  _293
REMARK  119  A    between atoms: _292  and  _295
REMARK  120  A    between atoms: _295  and  _296
REMARK  121  A    between atoms: _306  and  _308
REMARK  122  A    between atoms: _308  and  _309
REMARK  123  A    between atoms: _308  and  _311
REMARK  124  A    between atoms: _311  and  _312
REMARK                            x       y       z     vdW  Elec       q    Type
REMARK                         _______ _______ _______ _____ _____    ______ ____
ROOT
ATOM      1  O   HOH     1      84.051  56.350  13.625  0.00  0.00    +0.000 OA
ENDROOT
TORSDOF 0
