REMARK  Name = ../refined-set-2016/4g8v/4g8v_pocket.pdb
REMARK  141 active torsions:
REMARK  status: ('A' for Active; 'I' for Inactive)
REMARK    1  A    between atoms: _1  and  _3
REMARK    2  A    between atoms: _3  and  _4
REMARK    3  A    between atoms: _3  and  _6
REMARK    4  A    between atoms: _6  and  _7
REMARK    5  A    between atoms: _7  and  _8
REMARK    6  A    between atoms: _11  and  _13
REMARK    7  A    between atoms: _13  and  _14
REMARK    8  A    between atoms: _17  and  _19
REMARK    9  A    between atoms: _19  and  _20
REMARK   10  A    between atoms: _19  and  _22
REMARK   11  A    between atoms: _22  and  _23
REMARK   12  A    between atoms: _23  and  _24
REMARK   13  A    between atoms: _24  and  _25
REMARK   14  A    between atoms: _25  and  _26
REMARK   15  A    between atoms: _30  and  _32
REMARK   16  A    between atoms: _32  and  _33
REMARK   17  A    between atoms: _32  and  _35
REMARK   18  A    between atoms: _35  and  _36
REMARK   19  A    between atoms: _42  and  _44
REMARK   20  A    between atoms: _44  and  _45
REMARK   21  A    between atoms: _44  and  _47
REMARK   22  A    between atoms: _47  and  _48
REMARK   23  A    between atoms: _48  and  _49
REMARK   24  A    between atoms: _49  and  _50
REMARK   25  A    between atoms: _59  and  _61
REMARK   26  A    between atoms: _61  and  _62
REMARK   27  A    between atoms: _61  and  _64
REMARK   28  A    between atoms: _64  and  _65
REMARK   29  A    between atoms: _65  and  _66
REMARK   30  A    between atoms: _71  and  _73
REMARK   31  A    between atoms: _73  and  _74
REMARK   32  A    between atoms: _73  and  _76
REMARK   33  A    between atoms: _76  and  _77
REMARK   34  A    between atoms: _82  and  _84
REMARK   35  A    between atoms: _84  and  _85
REMARK   36  A    between atoms: _84  and  _87
REMARK   37  A    between atoms: _87  and  _88
REMARK   38  A    between atoms: _88  and  _89
REMARK   39  A    between atoms: _91  and  _93
REMARK   40  A    between atoms: _93  and  _94
REMARK   41  A    between atoms: _93  and  _96
REMARK   42  A    between atoms: _96  and  _97
REMARK   43  A    between atoms: _100  and  _102
REMARK   44  A    between atoms: _102  and  _103
REMARK   45  A    between atoms: _102  and  _105
REMARK   46  A    between atoms: _105  and  _106
REMARK   47  A    between atoms: _106  and  _107
REMARK   48  A    between atoms: _107  and  _108
REMARK   49  A    between atoms: _117  and  _119
REMARK   50  A    between atoms: _119  and  _120
REMARK   51  A    between atoms: _119  and  _122
REMARK   52  A    between atoms: _122  and  _123
REMARK   53  A    between atoms: _123  and  _124
REMARK   54  A    between atoms: _124  and  _125
REMARK   55  A    between atoms: _125  and  _126
REMARK   56  A    between atoms: _131  and  _132
REMARK   57  A    between atoms: _137  and  _139
REMARK   58  A    between atoms: _139  and  _140
REMARK   59  A    between atoms: _139  and  _142
REMARK   60  A    between atoms: _145  and  _147
REMARK   61  A    between atoms: _147  and  _148
REMARK   62  A    between atoms: _147  and  _150
REMARK   63  A    between atoms: _150  and  _151
REMARK   64  A    between atoms: _156  and  _158
REMARK   65  A    between atoms: _158  and  _159
REMARK   66  A    between atoms: _158  and  _161
REMARK   67  A    between atoms: _161  and  _162
REMARK   68  A    between atoms: _165  and  _167
REMARK   69  A    between atoms: _167  and  _168
REMARK   70  A    between atoms: _167  and  _170
REMARK   71  A    between atoms: _170  and  _171
REMARK   72  A    between atoms: _177  and  _179
REMARK   73  A    between atoms: _179  and  _180
REMARK   74  A    between atoms: _179  and  _182
REMARK   75  A    between atoms: _182  and  _183
REMARK   76  A    between atoms: _183  and  _184
REMARK   77  A    between atoms: _184  and  _185
REMARK   78  A    between atoms: _185  and  _186
REMARK   79  A    between atoms: _190  and  _192
REMARK   80  A    between atoms: _192  and  _193
REMARK   81  A    between atoms: _192  and  _195
REMARK   82  A    between atoms: _195  and  _196
REMARK   83  A    between atoms: _201  and  _203
REMARK   84  A    between atoms: _203  and  _204
REMARK   85  A    between atoms: _203  and  _206
REMARK   86  A    between atoms: _206  and  _207
REMARK   87  A    between atoms: _210  and  _212
REMARK   88  A    between atoms: _212  and  _213
REMARK   89  A    between atoms: _212  and  _215
REMARK   90  A    between atoms: _215  and  _216
REMARK   91  A    between atoms: _219  and  _221
REMARK   92  A    between atoms: _221  and  _222
REMARK   93  A    between atoms: _221  and  _224
REMARK   94  A    between atoms: _224  and  _225
REMARK   95  A    between atoms: _228  and  _230
REMARK   96  A    between atoms: _230  and  _231
REMARK   97  A    between atoms: _230  and  _233
REMARK   98  A    between atoms: _235  and  _237
REMARK   99  A    between atoms: _237  and  _238
REMARK  100  A    between atoms: _237  and  _240
REMARK  101  A    between atoms: _240  and  _241
REMARK  102  A    between atoms: _241  and  _242
REMARK  103  A    between atoms: _242  and  _243
REMARK  104  A    between atoms: _252  and  _254
REMARK  105  A    between atoms: _254  and  _255
REMARK  106  A    between atoms: _254  and  _257
REMARK  107  A    between atoms: _257  and  _258
REMARK  108  A    between atoms: _258  and  _259
REMARK  109  A    between atoms: _259  and  _260
REMARK  110  A    between atoms: _260  and  _261
REMARK  111  A    between atoms: _265  and  _267
REMARK  112  A    between atoms: _267  and  _268
REMARK  113  A    between atoms: _267  and  _270
REMARK  114  A    between atoms: _270  and  _271
REMARK  115  A    between atoms: _274  and  _276
REMARK  116  A    between atoms: _276  and  _277
REMARK  117  A    between atoms: _281  and  _282
REMARK  118  A    between atoms: _287  and  _289
REMARK  119  A    between atoms: _289  and  _290
REMARK  120  A    between atoms: _289  and  _292
REMARK  121  A    between atoms: _295  and  _297
REMARK  122  A    between atoms: _297  and  _298
REMARK  123  A    between atoms: _297  and  _300
REMARK  124  A    between atoms: _300  and  _301
REMARK  125  A    between atoms: _306  and  _308
REMARK  126  A    between atoms: _308  and  _309
REMARK  127  A    between atoms: _308  and  _311
REMARK  128  A    between atoms: _311  and  _312
REMARK  129  A    between atoms: _318  and  _320
REMARK  130  A    between atoms: _320  and  _321
REMARK  131  A    between atoms: _320  and  _323
REMARK  132  A    between atoms: _323  and  _324
REMARK  133  A    between atoms: _327  and  _329
REMARK  134  A    between atoms: _329  and  _330
REMARK  135  A    between atoms: _333  and  _335
REMARK  136  A    between atoms: _335  and  _336
REMARK  137  A    between atoms: _335  and  _338
REMARK  138  A    between atoms: _338  and  _339
REMARK  139  A    between atoms: _341  and  _343
REMARK  140  A    between atoms: _343  and  _344
REMARK  141  A    between atoms: _343  and  _346
REMARK                            x       y       z     vdW  Elec       q    Type
REMARK                         _______ _______ _______ _____ _____    ______ ____
ROOT
ATOM      1  CA  GLU A   1      34.045  16.789  10.200  0.00  0.00    +0.134 C 
ENDROOT
BRANCH   1   2
ATOM      2  N   GLU A   1      34.880  17.985  10.077  0.00  0.00    -0.239 NA
ATOM      3  H   GLU A   1      35.870  17.881   9.775  0.00  0.00    +0.142 HD
ENDBRANCH   1   2
BRANCH   1   4
ATOM      4  C   GLU A   1      33.990  16.325  11.651  0.00  0.00    +0.224 C 
ATOM      5  O   GLU A   1      35.026  16.064  12.266  0.00  0.00    -0.287 OA
ENDBRANCH   1   4
BRANCH   1   6
ATOM      6  CB  GLU A   1      34.584  15.653   9.317  0.00  0.00    +0.037 C 
BRANCH   6   7
ATOM      7  CG  GLU A   1      33.699  14.402   9.291  0.00  0.00    +0.116 C 
BRANCH   7   8
ATOM      8  CD  GLU A   1      34.288  13.284   8.443  0.00  0.00    +0.365 C 
ATOM      9  OE2 GLU A   1      35.486  12.989   8.599  0.00  0.00    -0.246 OA
ATOM     10  OE1 GLU A   1      33.542  12.689   7.640  0.00  0.00    -0.246 OA
ENDBRANCH   7   8
ENDBRANCH   6   7
ENDBRANCH   1   6
TORSDOF 5
REMARK  Name = ../refined-set-2016/4g8v/4g8v_pocket.pdb
REMARK  141 active torsions:
REMARK  status: ('A' for Active; 'I' for Inactive)
REMARK    1  A    between atoms: _1  and  _3
REMARK    2  A    between atoms: _3  and  _4
REMARK    3  A    between atoms: _3  and  _6
REMARK    4  A    between atoms: _6  and  _7
REMARK    5  A    between atoms: _7  and  _8
REMARK    6  A    between atoms: _11  and  _13
REMARK    7  A    between atoms: _13  and  _14
REMARK    8  A    between atoms: _17  and  _19
REMARK    9  A    between atoms: _19  and  _20
REMARK   10  A    between atoms: _19  and  _22
REMARK   11  A    between atoms: _22  and  _23
REMARK   12  A    between atoms: _23  and  _24
REMARK   13  A    between atoms: _24  and  _25
REMARK   14  A    between atoms: _25  and  _26
REMARK   15  A    between atoms: _30  and  _32
REMARK   16  A    between atoms: _32  and  _33
REMARK   17  A    between atoms: _32  and  _35
REMARK   18  A    between atoms: _35  and  _36
REMARK   19  A    between atoms: _42  and  _44
REMARK   20  A    between atoms: _44  and  _45
REMARK   21  A    between atoms: _44  and  _47
REMARK   22  A    between atoms: _47  and  _48
REMARK   23  A    between atoms: _48  and  _49
REMARK   24  A    between atoms: _49  and  _50
REMARK   25  A    between atoms: _59  and  _61
REMARK   26  A    between atoms: _61  and  _62
REMARK   27  A    between atoms: _61  and  _64
REMARK   28  A    between atoms: _64  and  _65
REMARK   29  A    between atoms: _65  and  _66
REMARK   30  A    between atoms: _71  and  _73
REMARK   31  A    between atoms: _73  and  _74
REMARK   32  A    between atoms: _73  and  _76
REMARK   33  A    between atoms: _76  and  _77
REMARK   34  A    between atoms: _82  and  _84
REMARK   35  A    between atoms: _84  and  _85
REMARK   36  A    between atoms: _84  and  _87
REMARK   37  A    between atoms: _87  and  _88
REMARK   38  A    between atoms: _88  and  _89
REMARK   39  A    between atoms: _91  and  _93
REMARK   40  A    between atoms: _93  and  _94
REMARK   41  A    between atoms: _93  and  _96
REMARK   42  A    between atoms: _96  and  _97
REMARK   43  A    between atoms: _100  and  _102
REMARK   44  A    between atoms: _102  and  _103
REMARK   45  A    between atoms: _102  and  _105
REMARK   46  A    between atoms: _105  and  _106
REMARK   47  A    between atoms: _106  and  _107
REMARK   48  A    between atoms: _107  and  _108
REMARK   49  A    between atoms: _117  and  _119
REMARK   50  A    between atoms: _119  and  _120
REMARK   51  A    between atoms: _119  and  _122
REMARK   52  A    between atoms: _122  and  _123
REMARK   53  A    between atoms: _123  and  _124
REMARK   54  A    between atoms: _124  and  _125
REMARK   55  A    between atoms: _125  and  _126
REMARK   56  A    between atoms: _131  and  _132
REMARK   57  A    between atoms: _137  and  _139
REMARK   58  A    between atoms: _139  and  _140
REMARK   59  A    between atoms: _139  and  _142
REMARK   60  A    between atoms: _145  and  _147
REMARK   61  A    between atoms: _147  and  _148
REMARK   62  A    between atoms: _147  and  _150
REMARK   63  A    between atoms: _150  and  _151
REMARK   64  A    between atoms: _156  and  _158
REMARK   65  A    between atoms: _158  and  _159
REMARK   66  A    between atoms: _158  and  _161
REMARK   67  A    between atoms: _161  and  _162
REMARK   68  A    between atoms: _165  and  _167
REMARK   69  A    between atoms: _167  and  _168
REMARK   70  A    between atoms: _167  and  _170
REMARK   71  A    between atoms: _170  and  _171
REMARK   72  A    between atoms: _177  and  _179
REMARK   73  A    between atoms: _179  and  _180
REMARK   74  A    between atoms: _179  and  _182
REMARK   75  A    between atoms: _182  and  _183
REMARK   76  A    between atoms: _183  and  _184
REMARK   77  A    between atoms: _184  and  _185
REMARK   78  A    between atoms: _185  and  _186
REMARK   79  A    between atoms: _190  and  _192
REMARK   80  A    between atoms: _192  and  _193
REMARK   81  A    between atoms: _192  and  _195
REMARK   82  A    between atoms: _195  and  _196
REMARK   83  A    between atoms: _201  and  _203
REMARK   84  A    between atoms: _203  and  _204
REMARK   85  A    between atoms: _203  and  _206
REMARK   86  A    between atoms: _206  and  _207
REMARK   87  A    between atoms: _210  and  _212
REMARK   88  A    between atoms: _212  and  _213
REMARK   89  A    between atoms: _212  and  _215
REMARK   90  A    between atoms: _215  and  _216
REMARK   91  A    between atoms: _219  and  _221
REMARK   92  A    between atoms: _221  and  _222
REMARK   93  A    between atoms: _221  and  _224
REMARK   94  A    between atoms: _224  and  _225
REMARK   95  A    between atoms: _228  and  _230
REMARK   96  A    between atoms: _230  and  _231
REMARK   97  A    between atoms: _230  and  _233
REMARK   98  A    between atoms: _235  and  _237
REMARK   99  A    between atoms: _237  and  _238
REMARK  100  A    between atoms: _237  and  _240
REMARK  101  A    between atoms: _240  and  _241
REMARK  102  A    between atoms: _241  and  _242
REMARK  103  A    between atoms: _242  and  _243
REMARK  104  A    between atoms: _252  and  _254
REMARK  105  A    between atoms: _254  and  _255
REMARK  106  A    between atoms: _254  and  _257
REMARK  107  A    between atoms: _257  and  _258
REMARK  108  A    between atoms: _258  and  _259
REMARK  109  A    between atoms: _259  and  _260
REMARK  110  A    between atoms: _260  and  _261
REMARK  111  A    between atoms: _265  and  _267
REMARK  112  A    between atoms: _267  and  _268
REMARK  113  A    between atoms: _267  and  _270
REMARK  114  A    between atoms: _270  and  _271
REMARK  115  A    between atoms: _274  and  _276
REMARK  116  A    between atoms: _276  and  _277
REMARK  117  A    between atoms: _281  and  _282
REMARK  118  A    between atoms: _287  and  _289
REMARK  119  A    between atoms: _289  and  _290
REMARK  120  A    between atoms: _289  and  _292
REMARK  121  A    between atoms: _295  and  _297
REMARK  122  A    between atoms: _297  and  _298
REMARK  123  A    between atoms: _297  and  _300
REMARK  124  A    between atoms: _300  and  _301
REMARK  125  A    between atoms: _306  and  _308
REMARK  126  A    between atoms: _308  and  _309
REMARK  127  A    between atoms: _308  and  _311
REMARK  128  A    between atoms: _311  and  _312
REMARK  129  A    between atoms: _318  and  _320
REMARK  130  A    between atoms: _320  and  _321
REMARK  131  A    between atoms: _320  and  _323
REMARK  132  A    between atoms: _323  and  _324
REMARK  133  A    between atoms: _327  and  _329
REMARK  134  A    between atoms: _329  and  _330
REMARK  135  A    between atoms: _333  and  _335
REMARK  136  A    between atoms: _335  and  _336
REMARK  137  A    between atoms: _335  and  _338
REMARK  138  A    between atoms: _338  and  _339
REMARK  139  A    between atoms: _341  and  _343
REMARK  140  A    between atoms: _343  and  _344
REMARK  141  A    between atoms: _343  and  _346
REMARK                            x       y       z     vdW  Elec       q    Type
REMARK                         _______ _______ _______ _____ _____    ______ ____
ROOT
ATOM      1  CA  ALA A   1      33.186  12.268  14.958  0.00  0.00    +0.133 C 
ATOM      2  CB  ALA A   1      33.523  11.938  16.396  0.00  0.00    +0.027 C 
ENDROOT
BRANCH   1   3
ATOM      3  N   ALA A   1      33.025  13.709  14.788  0.00  0.00    -0.239 NA
ATOM      4  H   ALA A   1      33.099  14.332  15.617  0.00  0.00    +0.142 HD
ENDBRANCH   1   3
BRANCH   1   5
ATOM      5  C   ALA A   1      31.921  11.539  14.516  0.00  0.00    +0.224 C 
ATOM      6  O   ALA A   1      31.989  10.445  13.933  0.00  0.00    -0.287 OA
ENDBRANCH   1   5
TORSDOF 2
REMARK  Name = ../refined-set-2016/4g8v/4g8v_pocket.pdb
REMARK  141 active torsions:
REMARK  status: ('A' for Active; 'I' for Inactive)
REMARK    1  A    between atoms: _1  and  _3
REMARK    2  A    between atoms: _3  and  _4
REMARK    3  A    between atoms: _3  and  _6
REMARK    4  A    between atoms: _6  and  _7
REMARK    5  A    between atoms: _7  and  _8
REMARK    6  A    between atoms: _11  and  _13
REMARK    7  A    between atoms: _13  and  _14
REMARK    8  A    between atoms: _17  and  _19
REMARK    9  A    between atoms: _19  and  _20
REMARK   10  A    between atoms: _19  and  _22
REMARK   11  A    between atoms: _22  and  _23
REMARK   12  A    between atoms: _23  and  _24
REMARK   13  A    between atoms: _24  and  _25
REMARK   14  A    between atoms: _25  and  _26
REMARK   15  A    between atoms: _30  and  _32
REMARK   16  A    between atoms: _32  and  _33
REMARK   17  A    between atoms: _32  and  _35
REMARK   18  A    between atoms: _35  and  _36
REMARK   19  A    between atoms: _42  and  _44
REMARK   20  A    between atoms: _44  and  _45
REMARK   21  A    between atoms: _44  and  _47
REMARK   22  A    between atoms: _47  and  _48
REMARK   23  A    between atoms: _48  and  _49
REMARK   24  A    between atoms: _49  and  _50
REMARK   25  A    between atoms: _59  and  _61
REMARK   26  A    between atoms: _61  and  _62
REMARK   27  A    between atoms: _61  and  _64
REMARK   28  A    between atoms: _64  and  _65
REMARK   29  A    between atoms: _65  and  _66
REMARK   30  A    between atoms: _71  and  _73
REMARK   31  A    between atoms: _73  and  _74
REMARK   32  A    between atoms: _73  and  _76
REMARK   33  A    between atoms: _76  and  _77
REMARK   34  A    between atoms: _82  and  _84
REMARK   35  A    between atoms: _84  and  _85
REMARK   36  A    between atoms: _84  and  _87
REMARK   37  A    between atoms: _87  and  _88
REMARK   38  A    between atoms: _88  and  _89
REMARK   39  A    between atoms: _91  and  _93
REMARK   40  A    between atoms: _93  and  _94
REMARK   41  A    between atoms: _93  and  _96
REMARK   42  A    between atoms: _96  and  _97
REMARK   43  A    between atoms: _100  and  _102
REMARK   44  A    between atoms: _102  and  _103
REMARK   45  A    between atoms: _102  and  _105
REMARK   46  A    between atoms: _105  and  _106
REMARK   47  A    between atoms: _106  and  _107
REMARK   48  A    between atoms: _107  and  _108
REMARK   49  A    between atoms: _117  and  _119
REMARK   50  A    between atoms: _119  and  _120
REMARK   51  A    between atoms: _119  and  _122
REMARK   52  A    between atoms: _122  and  _123
REMARK   53  A    between atoms: _123  and  _124
REMARK   54  A    between atoms: _124  and  _125
REMARK   55  A    between atoms: _125  and  _126
REMARK   56  A    between atoms: _131  and  _132
REMARK   57  A    between atoms: _137  and  _139
REMARK   58  A    between atoms: _139  and  _140
REMARK   59  A    between atoms: _139  and  _142
REMARK   60  A    between atoms: _145  and  _147
REMARK   61  A    between atoms: _147  and  _148
REMARK   62  A    between atoms: _147  and  _150
REMARK   63  A    between atoms: _150  and  _151
REMARK   64  A    between atoms: _156  and  _158
REMARK   65  A    between atoms: _158  and  _159
REMARK   66  A    between atoms: _158  and  _161
REMARK   67  A    between atoms: _161  and  _162
REMARK   68  A    between atoms: _165  and  _167
REMARK   69  A    between atoms: _167  and  _168
REMARK   70  A    between atoms: _167  and  _170
REMARK   71  A    between atoms: _170  and  _171
REMARK   72  A    between atoms: _177  and  _179
REMARK   73  A    between atoms: _179  and  _180
REMARK   74  A    between atoms: _179  and  _182
REMARK   75  A    between atoms: _182  and  _183
REMARK   76  A    between atoms: _183  and  _184
REMARK   77  A    between atoms: _184  and  _185
REMARK   78  A    between atoms: _185  and  _186
REMARK   79  A    between atoms: _190  and  _192
REMARK   80  A    between atoms: _192  and  _193
REMARK   81  A    between atoms: _192  and  _195
REMARK   82  A    between atoms: _195  and  _196
REMARK   83  A    between atoms: _201  and  _203
REMARK   84  A    between atoms: _203  and  _204
REMARK   85  A    between atoms: _203  and  _206
REMARK   86  A    between atoms: _206  and  _207
REMARK   87  A    between atoms: _210  and  _212
REMARK   88  A    between atoms: _212  and  _213
REMARK   89  A    between atoms: _212  and  _215
REMARK   90  A    between atoms: _215  and  _216
REMARK   91  A    between atoms: _219  and  _221
REMARK   92  A    between atoms: _221  and  _222
REMARK   93  A    between atoms: _221  and  _224
REMARK   94  A    between atoms: _224  and  _225
REMARK   95  A    between atoms: _228  and  _230
REMARK   96  A    between atoms: _230  and  _231
REMARK   97  A    between atoms: _230  and  _233
REMARK   98  A    between atoms: _235  and  _237
REMARK   99  A    between atoms: _237  and  _238
REMARK  100  A    between atoms: _237  and  _240
REMARK  101  A    between atoms: _240  and  _241
REMARK  102  A    between atoms: _241  and  _242
REMARK  103  A    between atoms: _242  and  _243
REMARK  104  A    between atoms: _252  and  _254
REMARK  105  A    between atoms: _254  and  _255
REMARK  106  A    between atoms: _254  and  _257
REMARK  107  A    between atoms: _257  and  _258
REMARK  108  A    between atoms: _258  and  _259
REMARK  109  A    between atoms: _259  and  _260
REMARK  110  A    between atoms: _260  and  _261
REMARK  111  A    between atoms: _265  and  _267
REMARK  112  A    between atoms: _267  and  _268
REMARK  113  A    between atoms: _267  and  _270
REMARK  114  A    between atoms: _270  and  _271
REMARK  115  A    between atoms: _274  and  _276
REMARK  116  A    between atoms: _276  and  _277
REMARK  117  A    between atoms: _281  and  _282
REMARK  118  A    between atoms: _287  and  _289
REMARK  119  A    between atoms: _289  and  _290
REMARK  120  A    between atoms: _289  and  _292
REMARK  121  A    between atoms: _295  and  _297
REMARK  122  A    between atoms: _297  and  _298
REMARK  123  A    between atoms: _297  and  _300
REMARK  124  A    between atoms: _300  and  _301
REMARK  125  A    between atoms: _306  and  _308
REMARK  126  A    between atoms: _308  and  _309
REMARK  127  A    between atoms: _308  and  _311
REMARK  128  A    between atoms: _311  and  _312
REMARK  129  A    between atoms: _318  and  _320
REMARK  130  A    between atoms: _320  and  _321
REMARK  131  A    between atoms: _320  and  _323
REMARK  132  A    between atoms: _323  and  _324
REMARK  133  A    between atoms: _327  and  _329
REMARK  134  A    between atoms: _329  and  _330
REMARK  135  A    between atoms: _333  and  _335
REMARK  136  A    between atoms: _335  and  _336
REMARK  137  A    between atoms: _335  and  _338
REMARK  138  A    between atoms: _338  and  _339
REMARK  139  A    between atoms: _341  and  _343
REMARK  140  A    between atoms: _343  and  _344
REMARK  141  A    between atoms: _343  and  _346
REMARK                            x       y       z     vdW  Elec       q    Type
REMARK                         _______ _______ _______ _____ _____    ______ ____
ROOT
ATOM      1  C   LYS A   1      32.360   9.098  10.449  0.00  0.00    +0.238 C 
ATOM      2  N   PHE A   2      31.659   8.786  11.539  0.00  0.00    -0.298 N 
ATOM      3  H   PHE A   2      31.555   9.480  12.306  0.00  0.00    +0.150 HD
ATOM      4  O   LYS A   1      32.572   8.296   9.554  0.00  0.00    -0.274 OA
ENDROOT
BRANCH   1   5
ATOM      5  CA  LYS A   1      32.886  10.520  10.343  0.00  0.00    +0.145 C 
BRANCH   5   6
ATOM      6  N   LYS A   1      31.877  11.444  10.812  0.00  0.00    -0.238 NA
ATOM      7  H   LYS A   1      32.056  11.990  11.679  0.00  0.00    +0.142 HD
ENDBRANCH   5   6
BRANCH   5   8
ATOM      8  CB  LYS A   1      34.167  10.683  11.151  0.00  0.00    +0.026 C 
BRANCH   8   9
ATOM      9  CG  LYS A   1      35.288   9.813  10.643  0.00  0.00    -0.000 C 
BRANCH   9  10
ATOM     10  CD  LYS A   1      36.546  10.036  11.431  0.00  0.00    -0.024 C 
BRANCH  10  11
ATOM     11  CE  LYS A   1      37.703   9.407  10.697  0.00  0.00    -0.086 C 
BRANCH  11  12
ATOM     12  NZ  LYS A   1      38.924   9.371  11.553  0.00  0.00    +0.380 N 
ATOM     13  HZ1 LYS A   1      38.729   8.814  12.409  0.00  0.00    -0.089 HD
ATOM     14  HZ2 LYS A   1      39.186  10.341  11.821  0.00  0.00    -0.089 HD
ATOM     15  HZ3 LYS A   1      39.705   8.933  11.023  0.00  0.00    -0.089 HD
ENDBRANCH  11  12
ENDBRANCH  10  11
ENDBRANCH   9  10
ENDBRANCH   8   9
ENDBRANCH   5   8
ENDBRANCH   1   5
BRANCH   2  16
ATOM     16  CA  PHE A   2      31.037   7.469  11.657  0.00  0.00    +0.141 C 
BRANCH  16  17
ATOM     17  C   PHE A   2      30.048   7.249  10.510  0.00  0.00    +0.227 C 
ATOM     18  O   PHE A   2      30.011   6.174   9.904  0.00  0.00    -0.286 OA
ENDBRANCH  16  17
BRANCH  16  19
ATOM     19  CB  PHE A   2      30.334   7.302  13.015  0.00  0.00    +0.054 C 
BRANCH  19  20
ATOM     20  CG  PHE A   2      29.607   5.990  13.155  0.00  0.00    -0.020 A 
ATOM     21  CD2 PHE A   2      30.245   4.881  13.716  0.00  0.00    -0.004 A 
ATOM     22  CE2 PHE A   2      29.583   3.659  13.835  0.00  0.00    -0.000 A 
ATOM     23  CZ  PHE A   2      28.269   3.532  13.375  0.00  0.00    -0.000 A 
ATOM     24  CE1 PHE A   2      27.623   4.636  12.812  0.00  0.00    -0.000 A 
ATOM     25  CD1 PHE A   2      28.293   5.852  12.709  0.00  0.00    -0.004 A 
ENDBRANCH  19  20
ENDBRANCH  16  19
ENDBRANCH   2  16
TORSDOF 11
REMARK  Name = ../refined-set-2016/4g8v/4g8v_pocket.pdb
REMARK  141 active torsions:
REMARK  status: ('A' for Active; 'I' for Inactive)
REMARK    1  A    between atoms: _1  and  _3
REMARK    2  A    between atoms: _3  and  _4
REMARK    3  A    between atoms: _3  and  _6
REMARK    4  A    between atoms: _6  and  _7
REMARK    5  A    between atoms: _7  and  _8
REMARK    6  A    between atoms: _11  and  _13
REMARK    7  A    between atoms: _13  and  _14
REMARK    8  A    between atoms: _17  and  _19
REMARK    9  A    between atoms: _19  and  _20
REMARK   10  A    between atoms: _19  and  _22
REMARK   11  A    between atoms: _22  and  _23
REMARK   12  A    between atoms: _23  and  _24
REMARK   13  A    between atoms: _24  and  _25
REMARK   14  A    between atoms: _25  and  _26
REMARK   15  A    between atoms: _30  and  _32
REMARK   16  A    between atoms: _32  and  _33
REMARK   17  A    between atoms: _32  and  _35
REMARK   18  A    between atoms: _35  and  _36
REMARK   19  A    between atoms: _42  and  _44
REMARK   20  A    between atoms: _44  and  _45
REMARK   21  A    between atoms: _44  and  _47
REMARK   22  A    between atoms: _47  and  _48
REMARK   23  A    between atoms: _48  and  _49
REMARK   24  A    between atoms: _49  and  _50
REMARK   25  A    between atoms: _59  and  _61
REMARK   26  A    between atoms: _61  and  _62
REMARK   27  A    between atoms: _61  and  _64
REMARK   28  A    between atoms: _64  and  _65
REMARK   29  A    between atoms: _65  and  _66
REMARK   30  A    between atoms: _71  and  _73
REMARK   31  A    between atoms: _73  and  _74
REMARK   32  A    between atoms: _73  and  _76
REMARK   33  A    between atoms: _76  and  _77
REMARK   34  A    between atoms: _82  and  _84
REMARK   35  A    between atoms: _84  and  _85
REMARK   36  A    between atoms: _84  and  _87
REMARK   37  A    between atoms: _87  and  _88
REMARK   38  A    between atoms: _88  and  _89
REMARK   39  A    between atoms: _91  and  _93
REMARK   40  A    between atoms: _93  and  _94
REMARK   41  A    between atoms: _93  and  _96
REMARK   42  A    between atoms: _96  and  _97
REMARK   43  A    between atoms: _100  and  _102
REMARK   44  A    between atoms: _102  and  _103
REMARK   45  A    between atoms: _102  and  _105
REMARK   46  A    between atoms: _105  and  _106
REMARK   47  A    between atoms: _106  and  _107
REMARK   48  A    between atoms: _107  and  _108
REMARK   49  A    between atoms: _117  and  _119
REMARK   50  A    between atoms: _119  and  _120
REMARK   51  A    between atoms: _119  and  _122
REMARK   52  A    between atoms: _122  and  _123
REMARK   53  A    between atoms: _123  and  _124
REMARK   54  A    between atoms: _124  and  _125
REMARK   55  A    between atoms: _125  and  _126
REMARK   56  A    between atoms: _131  and  _132
REMARK   57  A    between atoms: _137  and  _139
REMARK   58  A    between atoms: _139  and  _140
REMARK   59  A    between atoms: _139  and  _142
REMARK   60  A    between atoms: _145  and  _147
REMARK   61  A    between atoms: _147  and  _148
REMARK   62  A    between atoms: _147  and  _150
REMARK   63  A    between atoms: _150  and  _151
REMARK   64  A    between atoms: _156  and  _158
REMARK   65  A    between atoms: _158  and  _159
REMARK   66  A    between atoms: _158  and  _161
REMARK   67  A    between atoms: _161  and  _162
REMARK   68  A    between atoms: _165  and  _167
REMARK   69  A    between atoms: _167  and  _168
REMARK   70  A    between atoms: _167  and  _170
REMARK   71  A    between atoms: _170  and  _171
REMARK   72  A    between atoms: _177  and  _179
REMARK   73  A    between atoms: _179  and  _180
REMARK   74  A    between atoms: _179  and  _182
REMARK   75  A    between atoms: _182  and  _183
REMARK   76  A    between atoms: _183  and  _184
REMARK   77  A    between atoms: _184  and  _185
REMARK   78  A    between atoms: _185  and  _186
REMARK   79  A    between atoms: _190  and  _192
REMARK   80  A    between atoms: _192  and  _193
REMARK   81  A    between atoms: _192  and  _195
REMARK   82  A    between atoms: _195  and  _196
REMARK   83  A    between atoms: _201  and  _203
REMARK   84  A    between atoms: _203  and  _204
REMARK   85  A    between atoms: _203  and  _206
REMARK   86  A    between atoms: _206  and  _207
REMARK   87  A    between atoms: _210  and  _212
REMARK   88  A    between atoms: _212  and  _213
REMARK   89  A    between atoms: _212  and  _215
REMARK   90  A    between atoms: _215  and  _216
REMARK   91  A    between atoms: _219  and  _221
REMARK   92  A    between atoms: _221  and  _222
REMARK   93  A    between atoms: _221  and  _224
REMARK   94  A    between atoms: _224  and  _225
REMARK   95  A    between atoms: _228  and  _230
REMARK   96  A    between atoms: _230  and  _231
REMARK   97  A    between atoms: _230  and  _233
REMARK   98  A    between atoms: _235  and  _237
REMARK   99  A    between atoms: _237  and  _238
REMARK  100  A    between atoms: _237  and  _240
REMARK  101  A    between atoms: _240  and  _241
REMARK  102  A    between atoms: _241  and  _242
REMARK  103  A    between atoms: _242  and  _243
REMARK  104  A    between atoms: _252  and  _254
REMARK  105  A    between atoms: _254  and  _255
REMARK  106  A    between atoms: _254  and  _257
REMARK  107  A    between atoms: _257  and  _258
REMARK  108  A    between atoms: _258  and  _259
REMARK  109  A    between atoms: _259  and  _260
REMARK  110  A    between atoms: _260  and  _261
REMARK  111  A    between atoms: _265  and  _267
REMARK  112  A    between atoms: _267  and  _268
REMARK  113  A    between atoms: _267  and  _270
REMARK  114  A    between atoms: _270  and  _271
REMARK  115  A    between atoms: _274  and  _276
REMARK  116  A    between atoms: _276  and  _277
REMARK  117  A    between atoms: _281  and  _282
REMARK  118  A    between atoms: _287  and  _289
REMARK  119  A    between atoms: _289  and  _290
REMARK  120  A    between atoms: _289  and  _292
REMARK  121  A    between atoms: _295  and  _297
REMARK  122  A    between atoms: _297  and  _298
REMARK  123  A    between atoms: _297  and  _300
REMARK  124  A    between atoms: _300  and  _301
REMARK  125  A    between atoms: _306  and  _308
REMARK  126  A    between atoms: _308  and  _309
REMARK  127  A    between atoms: _308  and  _311
REMARK  128  A    between atoms: _311  and  _312
REMARK  129  A    between atoms: _318  and  _320
REMARK  130  A    between atoms: _320  and  _321
REMARK  131  A    between atoms: _320  and  _323
REMARK  132  A    between atoms: _323  and  _324
REMARK  133  A    between atoms: _327  and  _329
REMARK  134  A    between atoms: _329  and  _330
REMARK  135  A    between atoms: _333  and  _335
REMARK  136  A    between atoms: _335  and  _336
REMARK  137  A    between atoms: _335  and  _338
REMARK  138  A    between atoms: _338  and  _339
REMARK  139  A    between atoms: _341  and  _343
REMARK  140  A    between atoms: _343  and  _344
REMARK  141  A    between atoms: _343  and  _346
REMARK                            x       y       z     vdW  Elec       q    Type
REMARK                         _______ _______ _______ _____ _____    ______ ____
ROOT
ATOM      1  CA  GLN A   2      32.771   5.334   7.262  0.00  0.00    +0.149 C 
ENDROOT
BRANCH   1   3
ATOM      2  C   ARG A   1      31.479   7.065   6.169  0.00  0.00    +0.238 C 
ATOM      3  N   GLN A   2      32.046   6.601   7.273  0.00  0.00    -0.297 N 
ATOM      4  H   GLN A   2      31.974   7.145   8.156  0.00  0.00    +0.150 HD
ATOM      5  O   ARG A   1      31.475   6.427   5.114  0.00  0.00    -0.274 OA
BRANCH   2   6
ATOM      6  CA  ARG A   1      30.810   8.440   6.266  0.00  0.00    +0.145 C 
BRANCH   6   7
ATOM      7  N   ARG A   1      30.068   8.602   7.523  0.00  0.00    -0.238 NA
ATOM      8  H   ARG A   1      30.393   9.297   8.225  0.00  0.00    +0.142 HD
ENDBRANCH   6   7
BRANCH   6   9
ATOM      9  CB  ARG A   1      31.858   9.539   6.117  0.00  0.00    +0.030 C 
BRANCH   9  10
ATOM     10  CG  ARG A   1      32.779   9.343   4.909  0.00  0.00    +0.045 C 
BRANCH  10  11
ATOM     11  CD  ARG A   1      33.712  10.531   4.726  0.00  0.00    +0.174 C 
BRANCH  11  12
ATOM     12  NE  ARG A   1      34.538  10.811   5.897  0.00  0.00    -0.265 N 
ATOM     13  HE  ARG A   1      34.204  11.542   6.557  0.00  0.00    +0.259 HD
ATOM     14  CZ  ARG A   1      35.685  10.203   6.183  0.00  0.00    +0.342 C 
ATOM     15  NH2 ARG A   1      36.353  10.549   7.274  0.00  0.00    -0.292 N 
ATOM     16 HH21 ARG A   1      35.979  11.291   7.899  0.00  0.00    +0.255 HD
ATOM     17 HH22 ARG A   1      37.251  10.078   7.505  0.00  0.00    +0.255 HD
ATOM     18  NH1 ARG A   1      36.165   9.242   5.392  0.00  0.00    -0.292 N 
ATOM     19 HH11 ARG A   1      37.064   8.775   5.628  0.00  0.00    +0.255 HD
ATOM     20 HH12 ARG A   1      35.641   8.960   4.539  0.00  0.00    +0.255 HD
ENDBRANCH  11  12
ENDBRANCH  10  11
ENDBRANCH   9  10
ENDBRANCH   6   9
ENDBRANCH   2   6
ENDBRANCH   1   3
BRANCH   1  21
ATOM     21  C   GLN A   2      31.881   4.121   7.372  0.00  0.00    +0.241 C 
ATOM     22  N   HIS A   3      30.713   4.274   7.983  0.00  0.00    -0.298 N 
ATOM     23  H   HIS A   3      30.332   5.224   8.169  0.00  0.00    +0.150 HD
ATOM     24  O   GLN A   2      32.250   3.045   6.918  0.00  0.00    -0.273 OA
BRANCH  22  25
ATOM     25  CA  HIS A   3      29.972   3.082   8.390  0.00  0.00    +0.143 C 
BRANCH  25  26
ATOM     26  C   HIS A   3      28.512   2.993   8.012  0.00  0.00    +0.227 C 
ATOM     27  O   HIS A   3      27.912   1.944   8.193  0.00  0.00    -0.286 OA
ENDBRANCH  25  26
BRANCH  25  28
ATOM     28  CB  HIS A   3      30.098   2.869   9.903  0.00  0.00    +0.075 C 
BRANCH  28  29
ATOM     29  CG  HIS A   3      31.504   2.664  10.348  0.00  0.00    +0.082 A 
ATOM     30  CD2 HIS A   3      32.290   3.388  11.167  0.00  0.00    +0.115 A 
ATOM     31  NE2 HIS A   3      33.516   2.763  11.204  0.00  0.00    -0.221 NA
ATOM     32  CE1 HIS A   3      33.468   1.688  10.445  0.00  0.00    +0.199 A 
ATOM     33  ND1 HIS A   3      32.268   1.605   9.903  0.00  0.00    -0.227 NA
ENDBRANCH  28  29
ENDBRANCH  25  28
ENDBRANCH  22  25
ENDBRANCH   1  21
BRANCH   1  34
ATOM     34  CB  GLN A   2      33.793   5.307   8.397  0.00  0.00    +0.039 C 
BRANCH  34  35
ATOM     35  CG  GLN A   2      34.822   6.414   8.272  0.00  0.00    +0.087 C 
BRANCH  35  36
ATOM     36  CD  GLN A   2      35.988   6.243   9.205  0.00  0.00    +0.219 C 
ATOM     37  OE1 GLN A   2      35.830   5.806  10.346  0.00  0.00    -0.275 OA
ATOM     38  NE2 GLN A   2      37.179   6.592   8.727  0.00  0.00    -0.329 N 
ATOM     39 HE21 GLN A   2      38.026   6.501   9.324  0.00  0.00    +0.145 HD
ATOM     40 HE22 GLN A   2      37.263   6.956   7.757  0.00  0.00    +0.145 HD
ENDBRANCH  35  36
ENDBRANCH  34  35
ENDBRANCH   1  34
TORSDOF 15
REMARK  Name = ../refined-set-2016/4g8v/4g8v_pocket.pdb
REMARK  141 active torsions:
REMARK  status: ('A' for Active; 'I' for Inactive)
REMARK    1  A    between atoms: _1  and  _3
REMARK    2  A    between atoms: _3  and  _4
REMARK    3  A    between atoms: _3  and  _6
REMARK    4  A    between atoms: _6  and  _7
REMARK    5  A    between atoms: _7  and  _8
REMARK    6  A    between atoms: _11  and  _13
REMARK    7  A    between atoms: _13  and  _14
REMARK    8  A    between atoms: _17  and  _19
REMARK    9  A    between atoms: _19  and  _20
REMARK   10  A    between atoms: _19  and  _22
REMARK   11  A    between atoms: _22  and  _23
REMARK   12  A    between atoms: _23  and  _24
REMARK   13  A    between atoms: _24  and  _25
REMARK   14  A    between atoms: _25  and  _26
REMARK   15  A    between atoms: _30  and  _32
REMARK   16  A    between atoms: _32  and  _33
REMARK   17  A    between atoms: _32  and  _35
REMARK   18  A    between atoms: _35  and  _36
REMARK   19  A    between atoms: _42  and  _44
REMARK   20  A    between atoms: _44  and  _45
REMARK   21  A    between atoms: _44  and  _47
REMARK   22  A    between atoms: _47  and  _48
REMARK   23  A    between atoms: _48  and  _49
REMARK   24  A    between atoms: _49  and  _50
REMARK   25  A    between atoms: _59  and  _61
REMARK   26  A    between atoms: _61  and  _62
REMARK   27  A    between atoms: _61  and  _64
REMARK   28  A    between atoms: _64  and  _65
REMARK   29  A    between atoms: _65  and  _66
REMARK   30  A    between atoms: _71  and  _73
REMARK   31  A    between atoms: _73  and  _74
REMARK   32  A    between atoms: _73  and  _76
REMARK   33  A    between atoms: _76  and  _77
REMARK   34  A    between atoms: _82  and  _84
REMARK   35  A    between atoms: _84  and  _85
REMARK   36  A    between atoms: _84  and  _87
REMARK   37  A    between atoms: _87  and  _88
REMARK   38  A    between atoms: _88  and  _89
REMARK   39  A    between atoms: _91  and  _93
REMARK   40  A    between atoms: _93  and  _94
REMARK   41  A    between atoms: _93  and  _96
REMARK   42  A    between atoms: _96  and  _97
REMARK   43  A    between atoms: _100  and  _102
REMARK   44  A    between atoms: _102  and  _103
REMARK   45  A    between atoms: _102  and  _105
REMARK   46  A    between atoms: _105  and  _106
REMARK   47  A    between atoms: _106  and  _107
REMARK   48  A    between atoms: _107  and  _108
REMARK   49  A    between atoms: _117  and  _119
REMARK   50  A    between atoms: _119  and  _120
REMARK   51  A    between atoms: _119  and  _122
REMARK   52  A    between atoms: _122  and  _123
REMARK   53  A    between atoms: _123  and  _124
REMARK   54  A    between atoms: _124  and  _125
REMARK   55  A    between atoms: _125  and  _126
REMARK   56  A    between atoms: _131  and  _132
REMARK   57  A    between atoms: _137  and  _139
REMARK   58  A    between atoms: _139  and  _140
REMARK   59  A    between atoms: _139  and  _142
REMARK   60  A    between atoms: _145  and  _147
REMARK   61  A    between atoms: _147  and  _148
REMARK   62  A    between atoms: _147  and  _150
REMARK   63  A    between atoms: _150  and  _151
REMARK   64  A    between atoms: _156  and  _158
REMARK   65  A    between atoms: _158  and  _159
REMARK   66  A    between atoms: _158  and  _161
REMARK   67  A    between atoms: _161  and  _162
REMARK   68  A    between atoms: _165  and  _167
REMARK   69  A    between atoms: _167  and  _168
REMARK   70  A    between atoms: _167  and  _170
REMARK   71  A    between atoms: _170  and  _171
REMARK   72  A    between atoms: _177  and  _179
REMARK   73  A    between atoms: _179  and  _180
REMARK   74  A    between atoms: _179  and  _182
REMARK   75  A    between atoms: _182  and  _183
REMARK   76  A    between atoms: _183  and  _184
REMARK   77  A    between atoms: _184  and  _185
REMARK   78  A    between atoms: _185  and  _186
REMARK   79  A    between atoms: _190  and  _192
REMARK   80  A    between atoms: _192  and  _193
REMARK   81  A    between atoms: _192  and  _195
REMARK   82  A    between atoms: _195  and  _196
REMARK   83  A    between atoms: _201  and  _203
REMARK   84  A    between atoms: _203  and  _204
REMARK   85  A    between atoms: _203  and  _206
REMARK   86  A    between atoms: _206  and  _207
REMARK   87  A    between atoms: _210  and  _212
REMARK   88  A    between atoms: _212  and  _213
REMARK   89  A    between atoms: _212  and  _215
REMARK   90  A    between atoms: _215  and  _216
REMARK   91  A    between atoms: _219  and  _221
REMARK   92  A    between atoms: _221  and  _222
REMARK   93  A    between atoms: _221  and  _224
REMARK   94  A    between atoms: _224  and  _225
REMARK   95  A    between atoms: _228  and  _230
REMARK   96  A    between atoms: _230  and  _231
REMARK   97  A    between atoms: _230  and  _233
REMARK   98  A    between atoms: _235  and  _237
REMARK   99  A    between atoms: _237  and  _238
REMARK  100  A    between atoms: _237  and  _240
REMARK  101  A    between atoms: _240  and  _241
REMARK  102  A    between atoms: _241  and  _242
REMARK  103  A    between atoms: _242  and  _243
REMARK  104  A    between atoms: _252  and  _254
REMARK  105  A    between atoms: _254  and  _255
REMARK  106  A    between atoms: _254  and  _257
REMARK  107  A    between atoms: _257  and  _258
REMARK  108  A    between atoms: _258  and  _259
REMARK  109  A    between atoms: _259  and  _260
REMARK  110  A    between atoms: _260  and  _261
REMARK  111  A    between atoms: _265  and  _267
REMARK  112  A    between atoms: _267  and  _268
REMARK  113  A    between atoms: _267  and  _270
REMARK  114  A    between atoms: _270  and  _271
REMARK  115  A    between atoms: _274  and  _276
REMARK  116  A    between atoms: _276  and  _277
REMARK  117  A    between atoms: _281  and  _282
REMARK  118  A    between atoms: _287  and  _289
REMARK  119  A    between atoms: _289  and  _290
REMARK  120  A    between atoms: _289  and  _292
REMARK  121  A    between atoms: _295  and  _297
REMARK  122  A    between atoms: _297  and  _298
REMARK  123  A    between atoms: _297  and  _300
REMARK  124  A    between atoms: _300  and  _301
REMARK  125  A    between atoms: _306  and  _308
REMARK  126  A    between atoms: _308  and  _309
REMARK  127  A    between atoms: _308  and  _311
REMARK  128  A    between atoms: _311  and  _312
REMARK  129  A    between atoms: _318  and  _320
REMARK  130  A    between atoms: _320  and  _321
REMARK  131  A    between atoms: _320  and  _323
REMARK  132  A    between atoms: _323  and  _324
REMARK  133  A    between atoms: _327  and  _329
REMARK  134  A    between atoms: _329  and  _330
REMARK  135  A    between atoms: _333  and  _335
REMARK  136  A    between atoms: _335  and  _336
REMARK  137  A    between atoms: _335  and  _338
REMARK  138  A    between atoms: _338  and  _339
REMARK  139  A    between atoms: _341  and  _343
REMARK  140  A    between atoms: _343  and  _344
REMARK  141  A    between atoms: _343  and  _346
REMARK                            x       y       z     vdW  Elec       q    Type
REMARK                         _______ _______ _______ _____ _____    ______ ____
ROOT
ATOM      1  CA  MET A   1      36.011   2.139   0.325  0.00  0.00    +0.134 C 
ENDROOT
BRANCH   1   2
ATOM      2  N   MET A   1      34.835   1.725  -0.438  0.00  0.00    -0.239 NA
ATOM      3  H   MET A   1      34.804   0.785  -0.883  0.00  0.00    +0.142 HD
ENDBRANCH   1   2
BRANCH   1   4
ATOM      4  C   MET A   1      36.670   3.351  -0.329  0.00  0.00    +0.224 C 
ATOM      5  O   MET A   1      37.174   4.239   0.350  0.00  0.00    -0.287 OA
ENDBRANCH   1   4
BRANCH   1   6
ATOM      6  CB  MET A   1      37.008   0.985   0.473  0.00  0.00    +0.037 C 
BRANCH   6   7
ATOM      7  CG  MET A   1      36.457  -0.201   1.272  0.00  0.00    +0.059 C 
BRANCH   7   8
ATOM      8  SD  MET A   1      36.180   0.245   2.991  0.00  0.00    -0.139 S 
ATOM      9  CE  MET A   1      37.864   0.389   3.573  0.00  0.00    +0.069 C 
ENDBRANCH   7   8
ENDBRANCH   6   7
ENDBRANCH   1   6
TORSDOF 5
REMARK  Name = ../refined-set-2016/4g8v/4g8v_pocket.pdb
REMARK  141 active torsions:
REMARK  status: ('A' for Active; 'I' for Inactive)
REMARK    1  A    between atoms: _1  and  _3
REMARK    2  A    between atoms: _3  and  _4
REMARK    3  A    between atoms: _3  and  _6
REMARK    4  A    between atoms: _6  and  _7
REMARK    5  A    between atoms: _7  and  _8
REMARK    6  A    between atoms: _11  and  _13
REMARK    7  A    between atoms: _13  and  _14
REMARK    8  A    between atoms: _17  and  _19
REMARK    9  A    between atoms: _19  and  _20
REMARK   10  A    between atoms: _19  and  _22
REMARK   11  A    between atoms: _22  and  _23
REMARK   12  A    between atoms: _23  and  _24
REMARK   13  A    between atoms: _24  and  _25
REMARK   14  A    between atoms: _25  and  _26
REMARK   15  A    between atoms: _30  and  _32
REMARK   16  A    between atoms: _32  and  _33
REMARK   17  A    between atoms: _32  and  _35
REMARK   18  A    between atoms: _35  and  _36
REMARK   19  A    between atoms: _42  and  _44
REMARK   20  A    between atoms: _44  and  _45
REMARK   21  A    between atoms: _44  and  _47
REMARK   22  A    between atoms: _47  and  _48
REMARK   23  A    between atoms: _48  and  _49
REMARK   24  A    between atoms: _49  and  _50
REMARK   25  A    between atoms: _59  and  _61
REMARK   26  A    between atoms: _61  and  _62
REMARK   27  A    between atoms: _61  and  _64
REMARK   28  A    between atoms: _64  and  _65
REMARK   29  A    between atoms: _65  and  _66
REMARK   30  A    between atoms: _71  and  _73
REMARK   31  A    between atoms: _73  and  _74
REMARK   32  A    between atoms: _73  and  _76
REMARK   33  A    between atoms: _76  and  _77
REMARK   34  A    between atoms: _82  and  _84
REMARK   35  A    between atoms: _84  and  _85
REMARK   36  A    between atoms: _84  and  _87
REMARK   37  A    between atoms: _87  and  _88
REMARK   38  A    between atoms: _88  and  _89
REMARK   39  A    between atoms: _91  and  _93
REMARK   40  A    between atoms: _93  and  _94
REMARK   41  A    between atoms: _93  and  _96
REMARK   42  A    between atoms: _96  and  _97
REMARK   43  A    between atoms: _100  and  _102
REMARK   44  A    between atoms: _102  and  _103
REMARK   45  A    between atoms: _102  and  _105
REMARK   46  A    between atoms: _105  and  _106
REMARK   47  A    between atoms: _106  and  _107
REMARK   48  A    between atoms: _107  and  _108
REMARK   49  A    between atoms: _117  and  _119
REMARK   50  A    between atoms: _119  and  _120
REMARK   51  A    between atoms: _119  and  _122
REMARK   52  A    between atoms: _122  and  _123
REMARK   53  A    between atoms: _123  and  _124
REMARK   54  A    between atoms: _124  and  _125
REMARK   55  A    between atoms: _125  and  _126
REMARK   56  A    between atoms: _131  and  _132
REMARK   57  A    between atoms: _137  and  _139
REMARK   58  A    between atoms: _139  and  _140
REMARK   59  A    between atoms: _139  and  _142
REMARK   60  A    between atoms: _145  and  _147
REMARK   61  A    between atoms: _147  and  _148
REMARK   62  A    between atoms: _147  and  _150
REMARK   63  A    between atoms: _150  and  _151
REMARK   64  A    between atoms: _156  and  _158
REMARK   65  A    between atoms: _158  and  _159
REMARK   66  A    between atoms: _158  and  _161
REMARK   67  A    between atoms: _161  and  _162
REMARK   68  A    between atoms: _165  and  _167
REMARK   69  A    between atoms: _167  and  _168
REMARK   70  A    between atoms: _167  and  _170
REMARK   71  A    between atoms: _170  and  _171
REMARK   72  A    between atoms: _177  and  _179
REMARK   73  A    between atoms: _179  and  _180
REMARK   74  A    between atoms: _179  and  _182
REMARK   75  A    between atoms: _182  and  _183
REMARK   76  A    between atoms: _183  and  _184
REMARK   77  A    between atoms: _184  and  _185
REMARK   78  A    between atoms: _185  and  _186
REMARK   79  A    between atoms: _190  and  _192
REMARK   80  A    between atoms: _192  and  _193
REMARK   81  A    between atoms: _192  and  _195
REMARK   82  A    between atoms: _195  and  _196
REMARK   83  A    between atoms: _201  and  _203
REMARK   84  A    between atoms: _203  and  _204
REMARK   85  A    between atoms: _203  and  _206
REMARK   86  A    between atoms: _206  and  _207
REMARK   87  A    between atoms: _210  and  _212
REMARK   88  A    between atoms: _212  and  _213
REMARK   89  A    between atoms: _212  and  _215
REMARK   90  A    between atoms: _215  and  _216
REMARK   91  A    between atoms: _219  and  _221
REMARK   92  A    between atoms: _221  and  _222
REMARK   93  A    between atoms: _221  and  _224
REMARK   94  A    between atoms: _224  and  _225
REMARK   95  A    between atoms: _228  and  _230
REMARK   96  A    between atoms: _230  and  _231
REMARK   97  A    between atoms: _230  and  _233
REMARK   98  A    between atoms: _235  and  _237
REMARK   99  A    between atoms: _237  and  _238
REMARK  100  A    between atoms: _237  and  _240
REMARK  101  A    between atoms: _240  and  _241
REMARK  102  A    between atoms: _241  and  _242
REMARK  103  A    between atoms: _242  and  _243
REMARK  104  A    between atoms: _252  and  _254
REMARK  105  A    between atoms: _254  and  _255
REMARK  106  A    between atoms: _254  and  _257
REMARK  107  A    between atoms: _257  and  _258
REMARK  108  A    between atoms: _258  and  _259
REMARK  109  A    between atoms: _259  and  _260
REMARK  110  A    between atoms: _260  and  _261
REMARK  111  A    between atoms: _265  and  _267
REMARK  112  A    between atoms: _267  and  _268
REMARK  113  A    between atoms: _267  and  _270
REMARK  114  A    between atoms: _270  and  _271
REMARK  115  A    between atoms: _274  and  _276
REMARK  116  A    between atoms: _276  and  _277
REMARK  117  A    between atoms: _281  and  _282
REMARK  118  A    between atoms: _287  and  _289
REMARK  119  A    between atoms: _289  and  _290
REMARK  120  A    between atoms: _289  and  _292
REMARK  121  A    between atoms: _295  and  _297
REMARK  122  A    between atoms: _297  and  _298
REMARK  123  A    between atoms: _297  and  _300
REMARK  124  A    between atoms: _300  and  _301
REMARK  125  A    between atoms: _306  and  _308
REMARK  126  A    between atoms: _308  and  _309
REMARK  127  A    between atoms: _308  and  _311
REMARK  128  A    between atoms: _311  and  _312
REMARK  129  A    between atoms: _318  and  _320
REMARK  130  A    between atoms: _320  and  _321
REMARK  131  A    between atoms: _320  and  _323
REMARK  132  A    between atoms: _323  and  _324
REMARK  133  A    between atoms: _327  and  _329
REMARK  134  A    between atoms: _329  and  _330
REMARK  135  A    between atoms: _333  and  _335
REMARK  136  A    between atoms: _335  and  _336
REMARK  137  A    between atoms: _335  and  _338
REMARK  138  A    between atoms: _338  and  _339
REMARK  139  A    between atoms: _341  and  _343
REMARK  140  A    between atoms: _343  and  _344
REMARK  141  A    between atoms: _343  and  _346
REMARK                            x       y       z     vdW  Elec       q    Type
REMARK                         _______ _______ _______ _____ _____    ______ ____
ROOT
ATOM      1  CA  LEU A   1      38.862   5.220   3.163  0.00  0.00    +0.133 C 
ENDROOT
BRANCH   1   2
ATOM      2  N   LEU A   1      38.162   6.083   2.218  0.00  0.00    -0.239 NA
ATOM      3  H   LEU A   1      37.516   5.651   1.527  0.00  0.00    +0.142 HD
ENDBRANCH   1   2
BRANCH   1   4
ATOM      4  C   LEU A   1      40.118   4.609   2.540  0.00  0.00    +0.224 C 
ATOM      5  O   LEU A   1      40.791   3.790   3.164  0.00  0.00    -0.287 OA
ENDBRANCH   1   4
BRANCH   1   6
ATOM      6  CB  LEU A   1      37.937   4.107   3.659  0.00  0.00    +0.025 C 
BRANCH   6   7
ATOM      7  CG  LEU A   1      36.602   4.615   4.192  0.00  0.00    +0.002 C 
ATOM      8  CD2 LEU A   1      36.876   5.530   5.362  0.00  0.00    +0.000 C 
ATOM      9  CD1 LEU A   1      35.687   3.477   4.607  0.00  0.00    +0.000 C 
ENDBRANCH   6   7
ENDBRANCH   1   6
TORSDOF 4
REMARK  Name = ../refined-set-2016/4g8v/4g8v_pocket.pdb
REMARK  141 active torsions:
REMARK  status: ('A' for Active; 'I' for Inactive)
REMARK    1  A    between atoms: _1  and  _3
REMARK    2  A    between atoms: _3  and  _4
REMARK    3  A    between atoms: _3  and  _6
REMARK    4  A    between atoms: _6  and  _7
REMARK    5  A    between atoms: _7  and  _8
REMARK    6  A    between atoms: _11  and  _13
REMARK    7  A    between atoms: _13  and  _14
REMARK    8  A    between atoms: _17  and  _19
REMARK    9  A    between atoms: _19  and  _20
REMARK   10  A    between atoms: _19  and  _22
REMARK   11  A    between atoms: _22  and  _23
REMARK   12  A    between atoms: _23  and  _24
REMARK   13  A    between atoms: _24  and  _25
REMARK   14  A    between atoms: _25  and  _26
REMARK   15  A    between atoms: _30  and  _32
REMARK   16  A    between atoms: _32  and  _33
REMARK   17  A    between atoms: _32  and  _35
REMARK   18  A    between atoms: _35  and  _36
REMARK   19  A    between atoms: _42  and  _44
REMARK   20  A    between atoms: _44  and  _45
REMARK   21  A    between atoms: _44  and  _47
REMARK   22  A    between atoms: _47  and  _48
REMARK   23  A    between atoms: _48  and  _49
REMARK   24  A    between atoms: _49  and  _50
REMARK   25  A    between atoms: _59  and  _61
REMARK   26  A    between atoms: _61  and  _62
REMARK   27  A    between atoms: _61  and  _64
REMARK   28  A    between atoms: _64  and  _65
REMARK   29  A    between atoms: _65  and  _66
REMARK   30  A    between atoms: _71  and  _73
REMARK   31  A    between atoms: _73  and  _74
REMARK   32  A    between atoms: _73  and  _76
REMARK   33  A    between atoms: _76  and  _77
REMARK   34  A    between atoms: _82  and  _84
REMARK   35  A    between atoms: _84  and  _85
REMARK   36  A    between atoms: _84  and  _87
REMARK   37  A    between atoms: _87  and  _88
REMARK   38  A    between atoms: _88  and  _89
REMARK   39  A    between atoms: _91  and  _93
REMARK   40  A    between atoms: _93  and  _94
REMARK   41  A    between atoms: _93  and  _96
REMARK   42  A    between atoms: _96  and  _97
REMARK   43  A    between atoms: _100  and  _102
REMARK   44  A    between atoms: _102  and  _103
REMARK   45  A    between atoms: _102  and  _105
REMARK   46  A    between atoms: _105  and  _106
REMARK   47  A    between atoms: _106  and  _107
REMARK   48  A    between atoms: _107  and  _108
REMARK   49  A    between atoms: _117  and  _119
REMARK   50  A    between atoms: _119  and  _120
REMARK   51  A    between atoms: _119  and  _122
REMARK   52  A    between atoms: _122  and  _123
REMARK   53  A    between atoms: _123  and  _124
REMARK   54  A    between atoms: _124  and  _125
REMARK   55  A    between atoms: _125  and  _126
REMARK   56  A    between atoms: _131  and  _132
REMARK   57  A    between atoms: _137  and  _139
REMARK   58  A    between atoms: _139  and  _140
REMARK   59  A    between atoms: _139  and  _142
REMARK   60  A    between atoms: _145  and  _147
REMARK   61  A    between atoms: _147  and  _148
REMARK   62  A    between atoms: _147  and  _150
REMARK   63  A    between atoms: _150  and  _151
REMARK   64  A    between atoms: _156  and  _158
REMARK   65  A    between atoms: _158  and  _159
REMARK   66  A    between atoms: _158  and  _161
REMARK   67  A    between atoms: _161  and  _162
REMARK   68  A    between atoms: _165  and  _167
REMARK   69  A    between atoms: _167  and  _168
REMARK   70  A    between atoms: _167  and  _170
REMARK   71  A    between atoms: _170  and  _171
REMARK   72  A    between atoms: _177  and  _179
REMARK   73  A    between atoms: _179  and  _180
REMARK   74  A    between atoms: _179  and  _182
REMARK   75  A    between atoms: _182  and  _183
REMARK   76  A    between atoms: _183  and  _184
REMARK   77  A    between atoms: _184  and  _185
REMARK   78  A    between atoms: _185  and  _186
REMARK   79  A    between atoms: _190  and  _192
REMARK   80  A    between atoms: _192  and  _193
REMARK   81  A    between atoms: _192  and  _195
REMARK   82  A    between atoms: _195  and  _196
REMARK   83  A    between atoms: _201  and  _203
REMARK   84  A    between atoms: _203  and  _204
REMARK   85  A    between atoms: _203  and  _206
REMARK   86  A    between atoms: _206  and  _207
REMARK   87  A    between atoms: _210  and  _212
REMARK   88  A    between atoms: _212  and  _213
REMARK   89  A    between atoms: _212  and  _215
REMARK   90  A    between atoms: _215  and  _216
REMARK   91  A    between atoms: _219  and  _221
REMARK   92  A    between atoms: _221  and  _222
REMARK   93  A    between atoms: _221  and  _224
REMARK   94  A    between atoms: _224  and  _225
REMARK   95  A    between atoms: _228  and  _230
REMARK   96  A    between atoms: _230  and  _231
REMARK   97  A    between atoms: _230  and  _233
REMARK   98  A    between atoms: _235  and  _237
REMARK   99  A    between atoms: _237  and  _238
REMARK  100  A    between atoms: _237  and  _240
REMARK  101  A    between atoms: _240  and  _241
REMARK  102  A    between atoms: _241  and  _242
REMARK  103  A    between atoms: _242  and  _243
REMARK  104  A    between atoms: _252  and  _254
REMARK  105  A    between atoms: _254  and  _255
REMARK  106  A    between atoms: _254  and  _257
REMARK  107  A    between atoms: _257  and  _258
REMARK  108  A    between atoms: _258  and  _259
REMARK  109  A    between atoms: _259  and  _260
REMARK  110  A    between atoms: _260  and  _261
REMARK  111  A    between atoms: _265  and  _267
REMARK  112  A    between atoms: _267  and  _268
REMARK  113  A    between atoms: _267  and  _270
REMARK  114  A    between atoms: _270  and  _271
REMARK  115  A    between atoms: _274  and  _276
REMARK  116  A    between atoms: _276  and  _277
REMARK  117  A    between atoms: _281  and  _282
REMARK  118  A    between atoms: _287  and  _289
REMARK  119  A    between atoms: _289  and  _290
REMARK  120  A    between atoms: _289  and  _292
REMARK  121  A    between atoms: _295  and  _297
REMARK  122  A    between atoms: _297  and  _298
REMARK  123  A    between atoms: _297  and  _300
REMARK  124  A    between atoms: _300  and  _301
REMARK  125  A    between atoms: _306  and  _308
REMARK  126  A    between atoms: _308  and  _309
REMARK  127  A    between atoms: _308  and  _311
REMARK  128  A    between atoms: _311  and  _312
REMARK  129  A    between atoms: _318  and  _320
REMARK  130  A    between atoms: _320  and  _321
REMARK  131  A    between atoms: _320  and  _323
REMARK  132  A    between atoms: _323  and  _324
REMARK  133  A    between atoms: _327  and  _329
REMARK  134  A    between atoms: _329  and  _330
REMARK  135  A    between atoms: _333  and  _335
REMARK  136  A    between atoms: _335  and  _336
REMARK  137  A    between atoms: _335  and  _338
REMARK  138  A    between atoms: _338  and  _339
REMARK  139  A    between atoms: _341  and  _343
REMARK  140  A    between atoms: _343  and  _344
REMARK  141  A    between atoms: _343  and  _346
REMARK                            x       y       z     vdW  Elec       q    Type
REMARK                         _______ _______ _______ _____ _____    ______ ____
ROOT
ATOM      1  NE  ARG A   1      45.372   2.782   7.416  0.00  0.00    -0.265 N 
ATOM      2  CZ  ARG A   1      45.237   1.991   8.474  0.00  0.00    +0.342 C 
ATOM      3  NH2 ARG A   1      44.225   2.184   9.307  0.00  0.00    -0.292 N 
ATOM      4 HH21 ARG A   1      44.111   1.569  10.138  0.00  0.00    +0.255 HD
ATOM      5 HH22 ARG A   1      43.544   2.950   9.130  0.00  0.00    +0.255 HD
ATOM      6  NH1 ARG A   1      46.104   1.014   8.698  0.00  0.00    -0.292 N 
ATOM      7 HH11 ARG A   1      45.991   0.399   9.529  0.00  0.00    +0.255 HD
ATOM      8 HH12 ARG A   1      46.897   0.862   8.043  0.00  0.00    +0.255 HD
ATOM      9  HE  ARG A   1      44.665   3.534   7.289  0.00  0.00    +0.259 HD
ENDROOT
BRANCH   1  10
ATOM     10  CD  ARG A   1      46.431   2.683   6.416  0.00  0.00    +0.174 C 
BRANCH  10  11
ATOM     11  CG  ARG A   1      46.073   3.563   5.241  0.00  0.00    +0.045 C 
BRANCH  11  12
ATOM     12  CB  ARG A   1      47.087   3.530   4.111  0.00  0.00    +0.029 C 
BRANCH  12  13
ATOM     13  CA  ARG A   1      46.508   4.028   2.796  0.00  0.00    +0.133 C 
BRANCH  13  14
ATOM     14  N   ARG A   1      46.076   5.418   2.897  0.00  0.00    -0.239 NA
ATOM     15  H   ARG A   1      45.122   5.615   3.261  0.00  0.00    +0.142 HD
ENDBRANCH  13  14
BRANCH  13  16
ATOM     16  C   ARG A   1      45.255   3.229   2.482  0.00  0.00    +0.224 C 
ATOM     17  O   ARG A   1      44.166   3.798   2.374  0.00  0.00    -0.287 OA
ENDBRANCH  13  16
ENDBRANCH  12  13
ENDBRANCH  11  12
ENDBRANCH  10  11
ENDBRANCH   1  10
TORSDOF 6
REMARK  Name = ../refined-set-2016/4g8v/4g8v_pocket.pdb
REMARK  141 active torsions:
REMARK  status: ('A' for Active; 'I' for Inactive)
REMARK    1  A    between atoms: _1  and  _3
REMARK    2  A    between atoms: _3  and  _4
REMARK    3  A    between atoms: _3  and  _6
REMARK    4  A    between atoms: _6  and  _7
REMARK    5  A    between atoms: _7  and  _8
REMARK    6  A    between atoms: _11  and  _13
REMARK    7  A    between atoms: _13  and  _14
REMARK    8  A    between atoms: _17  and  _19
REMARK    9  A    between atoms: _19  and  _20
REMARK   10  A    between atoms: _19  and  _22
REMARK   11  A    between atoms: _22  and  _23
REMARK   12  A    between atoms: _23  and  _24
REMARK   13  A    between atoms: _24  and  _25
REMARK   14  A    between atoms: _25  and  _26
REMARK   15  A    between atoms: _30  and  _32
REMARK   16  A    between atoms: _32  and  _33
REMARK   17  A    between atoms: _32  and  _35
REMARK   18  A    between atoms: _35  and  _36
REMARK   19  A    between atoms: _42  and  _44
REMARK   20  A    between atoms: _44  and  _45
REMARK   21  A    between atoms: _44  and  _47
REMARK   22  A    between atoms: _47  and  _48
REMARK   23  A    between atoms: _48  and  _49
REMARK   24  A    between atoms: _49  and  _50
REMARK   25  A    between atoms: _59  and  _61
REMARK   26  A    between atoms: _61  and  _62
REMARK   27  A    between atoms: _61  and  _64
REMARK   28  A    between atoms: _64  and  _65
REMARK   29  A    between atoms: _65  and  _66
REMARK   30  A    between atoms: _71  and  _73
REMARK   31  A    between atoms: _73  and  _74
REMARK   32  A    between atoms: _73  and  _76
REMARK   33  A    between atoms: _76  and  _77
REMARK   34  A    between atoms: _82  and  _84
REMARK   35  A    between atoms: _84  and  _85
REMARK   36  A    between atoms: _84  and  _87
REMARK   37  A    between atoms: _87  and  _88
REMARK   38  A    between atoms: _88  and  _89
REMARK   39  A    between atoms: _91  and  _93
REMARK   40  A    between atoms: _93  and  _94
REMARK   41  A    between atoms: _93  and  _96
REMARK   42  A    between atoms: _96  and  _97
REMARK   43  A    between atoms: _100  and  _102
REMARK   44  A    between atoms: _102  and  _103
REMARK   45  A    between atoms: _102  and  _105
REMARK   46  A    between atoms: _105  and  _106
REMARK   47  A    between atoms: _106  and  _107
REMARK   48  A    between atoms: _107  and  _108
REMARK   49  A    between atoms: _117  and  _119
REMARK   50  A    between atoms: _119  and  _120
REMARK   51  A    between atoms: _119  and  _122
REMARK   52  A    between atoms: _122  and  _123
REMARK   53  A    between atoms: _123  and  _124
REMARK   54  A    between atoms: _124  and  _125
REMARK   55  A    between atoms: _125  and  _126
REMARK   56  A    between atoms: _131  and  _132
REMARK   57  A    between atoms: _137  and  _139
REMARK   58  A    between atoms: _139  and  _140
REMARK   59  A    between atoms: _139  and  _142
REMARK   60  A    between atoms: _145  and  _147
REMARK   61  A    between atoms: _147  and  _148
REMARK   62  A    between atoms: _147  and  _150
REMARK   63  A    between atoms: _150  and  _151
REMARK   64  A    between atoms: _156  and  _158
REMARK   65  A    between atoms: _158  and  _159
REMARK   66  A    between atoms: _158  and  _161
REMARK   67  A    between atoms: _161  and  _162
REMARK   68  A    between atoms: _165  and  _167
REMARK   69  A    between atoms: _167  and  _168
REMARK   70  A    between atoms: _167  and  _170
REMARK   71  A    between atoms: _170  and  _171
REMARK   72  A    between atoms: _177  and  _179
REMARK   73  A    between atoms: _179  and  _180
REMARK   74  A    between atoms: _179  and  _182
REMARK   75  A    between atoms: _182  and  _183
REMARK   76  A    between atoms: _183  and  _184
REMARK   77  A    between atoms: _184  and  _185
REMARK   78  A    between atoms: _185  and  _186
REMARK   79  A    between atoms: _190  and  _192
REMARK   80  A    between atoms: _192  and  _193
REMARK   81  A    between atoms: _192  and  _195
REMARK   82  A    between atoms: _195  and  _196
REMARK   83  A    between atoms: _201  and  _203
REMARK   84  A    between atoms: _203  and  _204
REMARK   85  A    between atoms: _203  and  _206
REMARK   86  A    between atoms: _206  and  _207
REMARK   87  A    between atoms: _210  and  _212
REMARK   88  A    between atoms: _212  and  _213
REMARK   89  A    between atoms: _212  and  _215
REMARK   90  A    between atoms: _215  and  _216
REMARK   91  A    between atoms: _219  and  _221
REMARK   92  A    between atoms: _221  and  _222
REMARK   93  A    between atoms: _221  and  _224
REMARK   94  A    between atoms: _224  and  _225
REMARK   95  A    between atoms: _228  and  _230
REMARK   96  A    between atoms: _230  and  _231
REMARK   97  A    between atoms: _230  and  _233
REMARK   98  A    between atoms: _235  and  _237
REMARK   99  A    between atoms: _237  and  _238
REMARK  100  A    between atoms: _237  and  _240
REMARK  101  A    between atoms: _240  and  _241
REMARK  102  A    between atoms: _241  and  _242
REMARK  103  A    between atoms: _242  and  _243
REMARK  104  A    between atoms: _252  and  _254
REMARK  105  A    between atoms: _254  and  _255
REMARK  106  A    between atoms: _254  and  _257
REMARK  107  A    between atoms: _257  and  _258
REMARK  108  A    between atoms: _258  and  _259
REMARK  109  A    between atoms: _259  and  _260
REMARK  110  A    between atoms: _260  and  _261
REMARK  111  A    between atoms: _265  and  _267
REMARK  112  A    between atoms: _267  and  _268
REMARK  113  A    between atoms: _267  and  _270
REMARK  114  A    between atoms: _270  and  _271
REMARK  115  A    between atoms: _274  and  _276
REMARK  116  A    between atoms: _276  and  _277
REMARK  117  A    between atoms: _281  and  _282
REMARK  118  A    between atoms: _287  and  _289
REMARK  119  A    between atoms: _289  and  _290
REMARK  120  A    between atoms: _289  and  _292
REMARK  121  A    between atoms: _295  and  _297
REMARK  122  A    between atoms: _297  and  _298
REMARK  123  A    between atoms: _297  and  _300
REMARK  124  A    between atoms: _300  and  _301
REMARK  125  A    between atoms: _306  and  _308
REMARK  126  A    between atoms: _308  and  _309
REMARK  127  A    between atoms: _308  and  _311
REMARK  128  A    between atoms: _311  and  _312
REMARK  129  A    between atoms: _318  and  _320
REMARK  130  A    between atoms: _320  and  _321
REMARK  131  A    between atoms: _320  and  _323
REMARK  132  A    between atoms: _323  and  _324
REMARK  133  A    between atoms: _327  and  _329
REMARK  134  A    between atoms: _329  and  _330
REMARK  135  A    between atoms: _333  and  _335
REMARK  136  A    between atoms: _335  and  _336
REMARK  137  A    between atoms: _335  and  _338
REMARK  138  A    between atoms: _338  and  _339
REMARK  139  A    between atoms: _341  and  _343
REMARK  140  A    between atoms: _343  and  _344
REMARK  141  A    between atoms: _343  and  _346
REMARK                            x       y       z     vdW  Elec       q    Type
REMARK                         _______ _______ _______ _____ _____    ______ ____
ROOT
ATOM      1  C   VAL A   3      37.973  -2.471   7.830  0.00  0.00    +0.241 C 
ATOM      2  O   VAL A   3      38.298  -1.476   8.479  0.00  0.00    -0.273 OA
ATOM      3  N   ASN A   4      36.760  -2.617   7.302  0.00  0.00    -0.297 N 
ATOM      4  H   ASN A   4      36.554  -3.451   6.715  0.00  0.00    +0.150 HD
ENDROOT
BRANCH   3   5
ATOM      5  CA  ASN A   4      35.714  -1.624   7.534  0.00  0.00    +0.158 C 
BRANCH   5   6
ATOM      6  C   ASN A   4      34.331  -2.195   7.274  0.00  0.00    +0.241 C 
ATOM      7  N   THR A   5      33.362  -1.818   8.100  0.00  0.00    -0.295 N 
ATOM      8  H   THR A   5      33.566  -1.121   8.845  0.00  0.00    +0.150 HD
ATOM      9  O   ASN A   4      34.139  -2.942   6.324  0.00  0.00    -0.273 OA
BRANCH   7  10
ATOM     10  CA  THR A   5      32.014  -2.368   7.978  0.00  0.00    +0.176 C 
BRANCH  10  11
ATOM     11  C   THR A   5      31.006  -1.271   7.650  0.00  0.00    +0.243 C 
ATOM     12  O   THR A   5      31.050  -0.191   8.237  0.00  0.00    -0.273 OA
ATOM     13  N   PHE A   6      30.129  -1.530   6.677  0.00  0.00    -0.298 N 
ATOM     14  H   PHE A   6      30.232  -2.405   6.125  0.00  0.00    +0.150 HD
BRANCH  13  15
ATOM     15  CA  PHE A   6      29.033  -0.625   6.366  0.00  0.00    +0.141 C 
BRANCH  15  16
ATOM     16  C   PHE A   6      27.737  -1.230   6.869  0.00  0.00    +0.227 C 
ATOM     17  O   PHE A   6      27.520  -2.437   6.738  0.00  0.00    -0.286 OA
ENDBRANCH  15  16
BRANCH  15  18
ATOM     18  CB  PHE A   6      28.950  -0.377   4.852  0.00  0.00    +0.054 C 
BRANCH  18  19
ATOM     19  CG  PHE A   6      30.135   0.383   4.292  0.00  0.00    -0.020 A 
ATOM     20  CD2 PHE A   6      30.176   1.774   4.363  0.00  0.00    -0.004 A 
ATOM     21  CE2 PHE A   6      31.258   2.489   3.857  0.00  0.00    -0.000 A 
ATOM     22  CZ  PHE A   6      32.315   1.813   3.267  0.00  0.00    -0.000 A 
ATOM     23  CE1 PHE A   6      32.304   0.425   3.195  0.00  0.00    -0.000 A 
ATOM     24  CD1 PHE A   6      31.205  -0.292   3.707  0.00  0.00    -0.004 A 
ENDBRANCH  18  19
ENDBRANCH  15  18
ENDBRANCH  13  15
ENDBRANCH  10  11
BRANCH  10  25
ATOM     25  CB  THR A   5      31.598  -3.066   9.289  0.00  0.00    +0.137 C 
ATOM     26  CG2 THR A   5      30.143  -3.537   9.213  0.00  0.00    +0.034 C 
BRANCH  25  27
ATOM     27  OG1 THR A   5      32.461  -4.185   9.527  0.00  0.00    -0.382 OA
ATOM     28  HG1 THR A   5      32.387  -4.823   8.774  0.00  0.00    +0.210 HD
ENDBRANCH  25  27
ENDBRANCH  10  25
ENDBRANCH   7  10
ENDBRANCH   5   6
BRANCH   5  29
ATOM     29  CB  ASN A   4      35.934  -0.396   6.651  0.00  0.00    +0.114 C 
BRANCH  29  30
ATOM     30  CG  ASN A   4      34.984   0.738   6.980  0.00  0.00    +0.222 C 
ATOM     31  OD1 ASN A   4      35.160   1.432   7.988  0.00  0.00    -0.275 OA
ATOM     32  ND2 ASN A   4      33.991   0.957   6.114  0.00  0.00    -0.329 N 
ATOM     33 HD21 ASN A   4      33.325   1.739   6.274  0.00  0.00    +0.145 HD
ATOM     34 HD22 ASN A   4      33.884   0.345   5.280  0.00  0.00    +0.145 HD
ENDBRANCH  29  30
ENDBRANCH   5  29
ENDBRANCH   3   5
BRANCH   1  35
ATOM     35  CA  VAL A   3      38.976  -3.596   7.589  0.00  0.00    +0.149 C 
BRANCH  35  37
ATOM     36  C   PRO A   2      41.081  -3.499   6.329  0.00  0.00    +0.241 C 
ATOM     37  N   VAL A   3      40.286  -3.018   7.281  0.00  0.00    -0.297 N 
ATOM     38  H   VAL A   3      40.609  -2.196   7.830  0.00  0.00    +0.150 HD
ATOM     39  O   PRO A   2      40.765  -4.443   5.597  0.00  0.00    -0.273 OA
BRANCH  36  45
ATOM     40  C   LYS A   1      41.821  -0.600   5.351  0.00  0.00    +0.241 C 
ATOM     41  N   PRO A   2      42.450  -1.372   6.247  0.00  0.00    -0.272 N 
ATOM     42  CD  PRO A   2      43.305  -0.870   7.339  0.00  0.00    +0.094 C 
ATOM     43  CG  PRO A   2      44.213  -2.029   7.609  0.00  0.00    +0.024 C 
ATOM     44  CB  PRO A   2      43.378  -3.246   7.329  0.00  0.00    +0.031 C 
ATOM     45  CA  PRO A   2      42.463  -2.840   6.168  0.00  0.00    +0.152 C 
ATOM     46  O   LYS A   1      41.064  -1.056   4.491  0.00  0.00    -0.273 OA
BRANCH  40  47
ATOM     47  CA  LYS A   1      42.099   0.894   5.410  0.00  0.00    +0.145 C 
BRANCH  47  48
ATOM     48  N   LYS A   1      42.624   1.267   4.099  0.00  0.00    -0.238 NA
ATOM     49  H   LYS A   1      42.104   1.935   3.495  0.00  0.00    +0.142 HD
ENDBRANCH  47  48
BRANCH  47  50
ATOM     50  CB  LYS A   1      40.819   1.660   5.758  0.00  0.00    +0.026 C 
BRANCH  50  51
ATOM     51  CG  LYS A   1      40.356   1.408   7.199  0.00  0.00    -0.000 C 
BRANCH  51  52
ATOM     52  CD  LYS A   1      39.123   2.228   7.567  0.00  0.00    -0.024 C 
BRANCH  52  53
ATOM     53  CE  LYS A   1      38.682   1.913   8.993  0.00  0.00    -0.086 C 
BRANCH  53  54
ATOM     54  NZ  LYS A   1      37.421   2.617   9.383  0.00  0.00    +0.380 N 
ATOM     55  HZ1 LYS A   1      37.172   2.364  10.361  0.00  0.00    -0.089 HD
ATOM     56  HZ2 LYS A   1      37.564   3.645   9.315  0.00  0.00    -0.089 HD
ATOM     57  HZ3 LYS A   1      36.653   2.330   8.743  0.00  0.00    -0.089 HD
ENDBRANCH  53  54
ENDBRANCH  52  53
ENDBRANCH  51  52
ENDBRANCH  50  51
ENDBRANCH  47  50
ENDBRANCH  40  47
ENDBRANCH  36  45
ENDBRANCH  35  37
BRANCH  35  58
ATOM     58  CB  VAL A   3      39.034  -4.478   8.862  0.00  0.00    +0.027 C 
ATOM     59  CG2 VAL A   3      37.646  -5.001   9.228  0.00  0.00    +0.002 C 
ATOM     60  CG1 VAL A   3      40.000  -5.637   8.674  0.00  0.00    +0.002 C 
ENDBRANCH  35  58
ENDBRANCH   1  35
TORSDOF 23
REMARK  Name = ../refined-set-2016/4g8v/4g8v_pocket.pdb
REMARK  141 active torsions:
REMARK  status: ('A' for Active; 'I' for Inactive)
REMARK    1  A    between atoms: _1  and  _3
REMARK    2  A    between atoms: _3  and  _4
REMARK    3  A    between atoms: _3  and  _6
REMARK    4  A    between atoms: _6  and  _7
REMARK    5  A    between atoms: _7  and  _8
REMARK    6  A    between atoms: _11  and  _13
REMARK    7  A    between atoms: _13  and  _14
REMARK    8  A    between atoms: _17  and  _19
REMARK    9  A    between atoms: _19  and  _20
REMARK   10  A    between atoms: _19  and  _22
REMARK   11  A    between atoms: _22  and  _23
REMARK   12  A    between atoms: _23  and  _24
REMARK   13  A    between atoms: _24  and  _25
REMARK   14  A    between atoms: _25  and  _26
REMARK   15  A    between atoms: _30  and  _32
REMARK   16  A    between atoms: _32  and  _33
REMARK   17  A    between atoms: _32  and  _35
REMARK   18  A    between atoms: _35  and  _36
REMARK   19  A    between atoms: _42  and  _44
REMARK   20  A    between atoms: _44  and  _45
REMARK   21  A    between atoms: _44  and  _47
REMARK   22  A    between atoms: _47  and  _48
REMARK   23  A    between atoms: _48  and  _49
REMARK   24  A    between atoms: _49  and  _50
REMARK   25  A    between atoms: _59  and  _61
REMARK   26  A    between atoms: _61  and  _62
REMARK   27  A    between atoms: _61  and  _64
REMARK   28  A    between atoms: _64  and  _65
REMARK   29  A    between atoms: _65  and  _66
REMARK   30  A    between atoms: _71  and  _73
REMARK   31  A    between atoms: _73  and  _74
REMARK   32  A    between atoms: _73  and  _76
REMARK   33  A    between atoms: _76  and  _77
REMARK   34  A    between atoms: _82  and  _84
REMARK   35  A    between atoms: _84  and  _85
REMARK   36  A    between atoms: _84  and  _87
REMARK   37  A    between atoms: _87  and  _88
REMARK   38  A    between atoms: _88  and  _89
REMARK   39  A    between atoms: _91  and  _93
REMARK   40  A    between atoms: _93  and  _94
REMARK   41  A    between atoms: _93  and  _96
REMARK   42  A    between atoms: _96  and  _97
REMARK   43  A    between atoms: _100  and  _102
REMARK   44  A    between atoms: _102  and  _103
REMARK   45  A    between atoms: _102  and  _105
REMARK   46  A    between atoms: _105  and  _106
REMARK   47  A    between atoms: _106  and  _107
REMARK   48  A    between atoms: _107  and  _108
REMARK   49  A    between atoms: _117  and  _119
REMARK   50  A    between atoms: _119  and  _120
REMARK   51  A    between atoms: _119  and  _122
REMARK   52  A    between atoms: _122  and  _123
REMARK   53  A    between atoms: _123  and  _124
REMARK   54  A    between atoms: _124  and  _125
REMARK   55  A    between atoms: _125  and  _126
REMARK   56  A    between atoms: _131  and  _132
REMARK   57  A    between atoms: _137  and  _139
REMARK   58  A    between atoms: _139  and  _140
REMARK   59  A    between atoms: _139  and  _142
REMARK   60  A    between atoms: _145  and  _147
REMARK   61  A    between atoms: _147  and  _148
REMARK   62  A    between atoms: _147  and  _150
REMARK   63  A    between atoms: _150  and  _151
REMARK   64  A    between atoms: _156  and  _158
REMARK   65  A    between atoms: _158  and  _159
REMARK   66  A    between atoms: _158  and  _161
REMARK   67  A    between atoms: _161  and  _162
REMARK   68  A    between atoms: _165  and  _167
REMARK   69  A    between atoms: _167  and  _168
REMARK   70  A    between atoms: _167  and  _170
REMARK   71  A    between atoms: _170  and  _171
REMARK   72  A    between atoms: _177  and  _179
REMARK   73  A    between atoms: _179  and  _180
REMARK   74  A    between atoms: _179  and  _182
REMARK   75  A    between atoms: _182  and  _183
REMARK   76  A    between atoms: _183  and  _184
REMARK   77  A    between atoms: _184  and  _185
REMARK   78  A    between atoms: _185  and  _186
REMARK   79  A    between atoms: _190  and  _192
REMARK   80  A    between atoms: _192  and  _193
REMARK   81  A    between atoms: _192  and  _195
REMARK   82  A    between atoms: _195  and  _196
REMARK   83  A    between atoms: _201  and  _203
REMARK   84  A    between atoms: _203  and  _204
REMARK   85  A    between atoms: _203  and  _206
REMARK   86  A    between atoms: _206  and  _207
REMARK   87  A    between atoms: _210  and  _212
REMARK   88  A    between atoms: _212  and  _213
REMARK   89  A    between atoms: _212  and  _215
REMARK   90  A    between atoms: _215  and  _216
REMARK   91  A    between atoms: _219  and  _221
REMARK   92  A    between atoms: _221  and  _222
REMARK   93  A    between atoms: _221  and  _224
REMARK   94  A    between atoms: _224  and  _225
REMARK   95  A    between atoms: _228  and  _230
REMARK   96  A    between atoms: _230  and  _231
REMARK   97  A    between atoms: _230  and  _233
REMARK   98  A    between atoms: _235  and  _237
REMARK   99  A    between atoms: _237  and  _238
REMARK  100  A    between atoms: _237  and  _240
REMARK  101  A    between atoms: _240  and  _241
REMARK  102  A    between atoms: _241  and  _242
REMARK  103  A    between atoms: _242  and  _243
REMARK  104  A    between atoms: _252  and  _254
REMARK  105  A    between atoms: _254  and  _255
REMARK  106  A    between atoms: _254  and  _257
REMARK  107  A    between atoms: _257  and  _258
REMARK  108  A    between atoms: _258  and  _259
REMARK  109  A    between atoms: _259  and  _260
REMARK  110  A    between atoms: _260  and  _261
REMARK  111  A    between atoms: _265  and  _267
REMARK  112  A    between atoms: _267  and  _268
REMARK  113  A    between atoms: _267  and  _270
REMARK  114  A    between atoms: _270  and  _271
REMARK  115  A    between atoms: _274  and  _276
REMARK  116  A    between atoms: _276  and  _277
REMARK  117  A    between atoms: _281  and  _282
REMARK  118  A    between atoms: _287  and  _289
REMARK  119  A    between atoms: _289  and  _290
REMARK  120  A    between atoms: _289  and  _292
REMARK  121  A    between atoms: _295  and  _297
REMARK  122  A    between atoms: _297  and  _298
REMARK  123  A    between atoms: _297  and  _300
REMARK  124  A    between atoms: _300  and  _301
REMARK  125  A    between atoms: _306  and  _308
REMARK  126  A    between atoms: _308  and  _309
REMARK  127  A    between atoms: _308  and  _311
REMARK  128  A    between atoms: _311  and  _312
REMARK  129  A    between atoms: _318  and  _320
REMARK  130  A    between atoms: _320  and  _321
REMARK  131  A    between atoms: _320  and  _323
REMARK  132  A    between atoms: _323  and  _324
REMARK  133  A    between atoms: _327  and  _329
REMARK  134  A    between atoms: _329  and  _330
REMARK  135  A    between atoms: _333  and  _335
REMARK  136  A    between atoms: _335  and  _336
REMARK  137  A    between atoms: _335  and  _338
REMARK  138  A    between atoms: _338  and  _339
REMARK  139  A    between atoms: _341  and  _343
REMARK  140  A    between atoms: _343  and  _344
REMARK  141  A    between atoms: _343  and  _346
REMARK                            x       y       z     vdW  Elec       q    Type
REMARK                         _______ _______ _______ _____ _____    ______ ____
ROOT
ATOM      1  C   LYS A   1      38.788  -3.495  23.230  0.00  0.00    +0.238 C 
ATOM      2  O   LYS A   1      39.659  -4.187  23.757  0.00  0.00    -0.274 OA
ATOM      3  N   ASN A   2      38.832  -2.169  23.238  0.00  0.00    -0.298 N 
ATOM      4  H   ASN A   2      38.073  -1.621  22.786  0.00  0.00    +0.150 HD
ENDROOT
BRANCH   1   5
ATOM      5  CA  LYS A   1      37.584  -4.146  22.564  0.00  0.00    +0.145 C 
BRANCH   5   6
ATOM      6  N   LYS A   1      36.367  -3.347  22.728  0.00  0.00    -0.238 NA
ATOM      7  H   LYS A   1      35.839  -3.042  21.885  0.00  0.00    +0.142 HD
ENDBRANCH   5   6
BRANCH   5   8
ATOM      8  CB  LYS A   1      37.865  -4.405  21.082  0.00  0.00    +0.026 C 
BRANCH   8   9
ATOM      9  CG  LYS A   1      37.059  -5.545  20.498  0.00  0.00    -0.000 C 
BRANCH   9  10
ATOM     10  CD  LYS A   1      37.172  -5.555  18.971  0.00  0.00    -0.024 C 
BRANCH  10  11
ATOM     11  CE  LYS A   1      36.439  -6.753  18.377  0.00  0.00    -0.086 C 
BRANCH  11  12
ATOM     12  NZ  LYS A   1      36.809  -6.970  16.941  0.00  0.00    +0.380 N 
ATOM     13  HZ1 LYS A   1      37.832  -7.142  16.870  0.00  0.00    -0.089 HD
ATOM     14  HZ2 LYS A   1      36.291  -7.793  16.571  0.00  0.00    -0.089 HD
ATOM     15  HZ3 LYS A   1      36.560  -6.125  16.388  0.00  0.00    -0.089 HD
ENDBRANCH  11  12
ENDBRANCH  10  11
ENDBRANCH   9  10
ENDBRANCH   8   9
ENDBRANCH   5   8
ENDBRANCH   1   5
BRANCH   3  16
ATOM     16  CA  ASN A   2      39.945  -1.480  23.881  0.00  0.00    +0.146 C 
BRANCH  16  17
ATOM     17  C   ASN A   2      39.807  -1.334  25.393  0.00  0.00    +0.227 C 
ATOM     18  O   ASN A   2      40.655  -0.707  26.037  0.00  0.00    -0.286 OA
ENDBRANCH  16  17
BRANCH  16  19
ATOM     19  CB  ASN A   2      40.169  -0.095  23.269  0.00  0.00    +0.112 C 
BRANCH  19  20
ATOM     20  CG  ASN A   2      39.018   0.869  23.533  0.00  0.00    +0.222 C 
ATOM     21  OD1 ASN A   2      38.108   0.605  24.324  0.00  0.00    -0.275 OA
ATOM     22  ND2 ASN A   2      39.062   2.012  22.860  0.00  0.00    -0.329 N 
ATOM     23 HD21 ASN A   2      38.313   2.722  22.991  0.00  0.00    +0.145 HD
ATOM     24 HD22 ASN A   2      39.846   2.198  22.202  0.00  0.00    +0.145 HD
ENDBRANCH  19  20
ENDBRANCH  16  19
ENDBRANCH   3  16
TORSDOF 11
REMARK  Name = ../refined-set-2016/4g8v/4g8v_pocket.pdb
REMARK  141 active torsions:
REMARK  status: ('A' for Active; 'I' for Inactive)
REMARK    1  A    between atoms: _1  and  _3
REMARK    2  A    between atoms: _3  and  _4
REMARK    3  A    between atoms: _3  and  _6
REMARK    4  A    between atoms: _6  and  _7
REMARK    5  A    between atoms: _7  and  _8
REMARK    6  A    between atoms: _11  and  _13
REMARK    7  A    between atoms: _13  and  _14
REMARK    8  A    between atoms: _17  and  _19
REMARK    9  A    between atoms: _19  and  _20
REMARK   10  A    between atoms: _19  and  _22
REMARK   11  A    between atoms: _22  and  _23
REMARK   12  A    between atoms: _23  and  _24
REMARK   13  A    between atoms: _24  and  _25
REMARK   14  A    between atoms: _25  and  _26
REMARK   15  A    between atoms: _30  and  _32
REMARK   16  A    between atoms: _32  and  _33
REMARK   17  A    between atoms: _32  and  _35
REMARK   18  A    between atoms: _35  and  _36
REMARK   19  A    between atoms: _42  and  _44
REMARK   20  A    between atoms: _44  and  _45
REMARK   21  A    between atoms: _44  and  _47
REMARK   22  A    between atoms: _47  and  _48
REMARK   23  A    between atoms: _48  and  _49
REMARK   24  A    between atoms: _49  and  _50
REMARK   25  A    between atoms: _59  and  _61
REMARK   26  A    between atoms: _61  and  _62
REMARK   27  A    between atoms: _61  and  _64
REMARK   28  A    between atoms: _64  and  _65
REMARK   29  A    between atoms: _65  and  _66
REMARK   30  A    between atoms: _71  and  _73
REMARK   31  A    between atoms: _73  and  _74
REMARK   32  A    between atoms: _73  and  _76
REMARK   33  A    between atoms: _76  and  _77
REMARK   34  A    between atoms: _82  and  _84
REMARK   35  A    between atoms: _84  and  _85
REMARK   36  A    between atoms: _84  and  _87
REMARK   37  A    between atoms: _87  and  _88
REMARK   38  A    between atoms: _88  and  _89
REMARK   39  A    between atoms: _91  and  _93
REMARK   40  A    between atoms: _93  and  _94
REMARK   41  A    between atoms: _93  and  _96
REMARK   42  A    between atoms: _96  and  _97
REMARK   43  A    between atoms: _100  and  _102
REMARK   44  A    between atoms: _102  and  _103
REMARK   45  A    between atoms: _102  and  _105
REMARK   46  A    between atoms: _105  and  _106
REMARK   47  A    between atoms: _106  and  _107
REMARK   48  A    between atoms: _107  and  _108
REMARK   49  A    between atoms: _117  and  _119
REMARK   50  A    between atoms: _119  and  _120
REMARK   51  A    between atoms: _119  and  _122
REMARK   52  A    between atoms: _122  and  _123
REMARK   53  A    between atoms: _123  and  _124
REMARK   54  A    between atoms: _124  and  _125
REMARK   55  A    between atoms: _125  and  _126
REMARK   56  A    between atoms: _131  and  _132
REMARK   57  A    between atoms: _137  and  _139
REMARK   58  A    between atoms: _139  and  _140
REMARK   59  A    between atoms: _139  and  _142
REMARK   60  A    between atoms: _145  and  _147
REMARK   61  A    between atoms: _147  and  _148
REMARK   62  A    between atoms: _147  and  _150
REMARK   63  A    between atoms: _150  and  _151
REMARK   64  A    between atoms: _156  and  _158
REMARK   65  A    between atoms: _158  and  _159
REMARK   66  A    between atoms: _158  and  _161
REMARK   67  A    between atoms: _161  and  _162
REMARK   68  A    between atoms: _165  and  _167
REMARK   69  A    between atoms: _167  and  _168
REMARK   70  A    between atoms: _167  and  _170
REMARK   71  A    between atoms: _170  and  _171
REMARK   72  A    between atoms: _177  and  _179
REMARK   73  A    between atoms: _179  and  _180
REMARK   74  A    between atoms: _179  and  _182
REMARK   75  A    between atoms: _182  and  _183
REMARK   76  A    between atoms: _183  and  _184
REMARK   77  A    between atoms: _184  and  _185
REMARK   78  A    between atoms: _185  and  _186
REMARK   79  A    between atoms: _190  and  _192
REMARK   80  A    between atoms: _192  and  _193
REMARK   81  A    between atoms: _192  and  _195
REMARK   82  A    between atoms: _195  and  _196
REMARK   83  A    between atoms: _201  and  _203
REMARK   84  A    between atoms: _203  and  _204
REMARK   85  A    between atoms: _203  and  _206
REMARK   86  A    between atoms: _206  and  _207
REMARK   87  A    between atoms: _210  and  _212
REMARK   88  A    between atoms: _212  and  _213
REMARK   89  A    between atoms: _212  and  _215
REMARK   90  A    between atoms: _215  and  _216
REMARK   91  A    between atoms: _219  and  _221
REMARK   92  A    between atoms: _221  and  _222
REMARK   93  A    between atoms: _221  and  _224
REMARK   94  A    between atoms: _224  and  _225
REMARK   95  A    between atoms: _228  and  _230
REMARK   96  A    between atoms: _230  and  _231
REMARK   97  A    between atoms: _230  and  _233
REMARK   98  A    between atoms: _235  and  _237
REMARK   99  A    between atoms: _237  and  _238
REMARK  100  A    between atoms: _237  and  _240
REMARK  101  A    between atoms: _240  and  _241
REMARK  102  A    between atoms: _241  and  _242
REMARK  103  A    between atoms: _242  and  _243
REMARK  104  A    between atoms: _252  and  _254
REMARK  105  A    between atoms: _254  and  _255
REMARK  106  A    between atoms: _254  and  _257
REMARK  107  A    between atoms: _257  and  _258
REMARK  108  A    between atoms: _258  and  _259
REMARK  109  A    between atoms: _259  and  _260
REMARK  110  A    between atoms: _260  and  _261
REMARK  111  A    between atoms: _265  and  _267
REMARK  112  A    between atoms: _267  and  _268
REMARK  113  A    between atoms: _267  and  _270
REMARK  114  A    between atoms: _270  and  _271
REMARK  115  A    between atoms: _274  and  _276
REMARK  116  A    between atoms: _276  and  _277
REMARK  117  A    between atoms: _281  and  _282
REMARK  118  A    between atoms: _287  and  _289
REMARK  119  A    between atoms: _289  and  _290
REMARK  120  A    between atoms: _289  and  _292
REMARK  121  A    between atoms: _295  and  _297
REMARK  122  A    between atoms: _297  and  _298
REMARK  123  A    between atoms: _297  and  _300
REMARK  124  A    between atoms: _300  and  _301
REMARK  125  A    between atoms: _306  and  _308
REMARK  126  A    between atoms: _308  and  _309
REMARK  127  A    between atoms: _308  and  _311
REMARK  128  A    between atoms: _311  and  _312
REMARK  129  A    between atoms: _318  and  _320
REMARK  130  A    between atoms: _320  and  _321
REMARK  131  A    between atoms: _320  and  _323
REMARK  132  A    between atoms: _323  and  _324
REMARK  133  A    between atoms: _327  and  _329
REMARK  134  A    between atoms: _329  and  _330
REMARK  135  A    between atoms: _333  and  _335
REMARK  136  A    between atoms: _335  and  _336
REMARK  137  A    between atoms: _335  and  _338
REMARK  138  A    between atoms: _338  and  _339
REMARK  139  A    between atoms: _341  and  _343
REMARK  140  A    between atoms: _343  and  _344
REMARK  141  A    between atoms: _343  and  _346
REMARK                            x       y       z     vdW  Elec       q    Type
REMARK                         _______ _______ _______ _____ _____    ______ ____
ROOT
ATOM      1  C   ASP A   3      33.186  -6.158   4.624  0.00  0.00    +0.241 C 
ATOM      2  N   CYS A   4      34.158  -5.255   4.719  0.00  0.00    -0.296 N 
ATOM      3  H   CYS A   4      34.202  -4.648   5.562  0.00  0.00    +0.150 HD
ATOM      4  O   ASP A   3      33.001  -6.852   3.616  0.00  0.00    -0.273 OA
ENDROOT
BRANCH   2   5
ATOM      5  CA  CYS A   4      35.161  -5.092   3.679  0.00  0.00    +0.160 C 
BRANCH   5   6
ATOM      6  C   CYS A   4      36.527  -5.392   4.269  0.00  0.00    +0.242 C 
ATOM      7  O   CYS A   4      36.924  -4.787   5.266  0.00  0.00    -0.273 OA
ATOM      8  N   ARG A   5      37.235  -6.339   3.659  0.00  0.00    -0.298 N 
ATOM      9  H   ARG A   5      36.853  -6.780   2.798  0.00  0.00    +0.150 HD
BRANCH   8  10
ATOM     10  CA  ARG A   5      38.531  -6.776   4.164  0.00  0.00    +0.137 C 
BRANCH  10  11
ATOM     11  C   ARG A   5      39.533  -6.755   3.031  0.00  0.00    +0.227 C 
ATOM     12  O   ARG A   5      39.304  -7.367   1.983  0.00  0.00    -0.286 OA
ENDBRANCH  10  11
BRANCH  10  13
ATOM     13  CB  ARG A   5      38.411  -8.185   4.754  0.00  0.00    +0.031 C 
BRANCH  13  14
ATOM     14  CG  ARG A   5      39.717  -8.968   4.852  0.00  0.00    +0.045 C 
BRANCH  14  15
ATOM     15  CD  ARG A   5      40.205  -9.066   6.294  0.00  0.00    +0.174 C 
BRANCH  15  16
ATOM     16  NE  ARG A   5      39.095  -9.220   7.233  0.00  0.00    -0.265 N 
ATOM     17  CZ  ARG A   5      39.228  -9.231   8.557  0.00  0.00    +0.342 C 
ATOM     18  NH2 ARG A   5      38.158  -9.365   9.335  0.00  0.00    -0.292 N 
ATOM     19 HH21 ARG A   5      38.265  -9.373  10.369  0.00  0.00    +0.255 HD
ATOM     20 HH22 ARG A   5      37.214  -9.462   8.909  0.00  0.00    +0.255 HD
ATOM     21  NH1 ARG A   5      40.430  -9.105   9.105  0.00  0.00    -0.292 N 
ATOM     22 HH11 ARG A   5      40.533  -9.114  10.140  0.00  0.00    +0.255 HD
ATOM     23 HH12 ARG A   5      41.269  -8.998   8.500  0.00  0.00    +0.255 HD
ATOM     24  HE  ARG A   5      38.138  -9.328   6.840  0.00  0.00    +0.259 HD
ENDBRANCH  15  16
ENDBRANCH  14  15
ENDBRANCH  13  14
ENDBRANCH  10  13
ENDBRANCH   8  10
ENDBRANCH   5   6
BRANCH   5  25
ATOM     25  CB  CYS A   4      35.152  -3.662   3.135  0.00  0.00    +0.098 C 
ATOM     26  SG  CYS A   4      33.559  -3.115   2.484  0.00  0.00    -0.080 S 
ENDBRANCH   5  25
ENDBRANCH   2   5
BRANCH   1  27
ATOM     27  CA  ASP A   3      32.274  -6.290   5.837  0.00  0.00    +0.160 C 
BRANCH  27  30
ATOM     28  C   THR A   2      30.115  -5.341   5.280  0.00  0.00    +0.243 C 
ATOM     29  O   THR A   2      30.479  -4.197   5.631  0.00  0.00    -0.273 OA
ATOM     30  N   ASP A   3      30.884  -6.421   5.408  0.00  0.00    -0.296 N 
ATOM     31  H   ASP A   3      30.493  -7.362   5.201  0.00  0.00    +0.150 HD
BRANCH  28  32
ATOM     32  CA  THR A   2      28.725  -5.567   4.717  0.00  0.00    +0.176 C 
BRANCH  32  34
ATOM     33  C   ILE A   1      26.726  -5.745   6.068  0.00  0.00    +0.238 C 
ATOM     34  N   THR A   2      27.769  -5.028   5.666  0.00  0.00    -0.295 N 
ATOM     35  H   THR A   2      27.903  -4.066   6.037  0.00  0.00    +0.150 HD
ATOM     36  O   ILE A   1      26.426  -6.828   5.574  0.00  0.00    -0.274 OA
BRANCH  33  37
ATOM     37  CA  ILE A   1      25.910  -5.160   7.198  0.00  0.00    +0.145 C 
BRANCH  37  38
ATOM     38  CB  ILE A   1      26.726  -5.282   8.508  0.00  0.00    +0.025 C 
ATOM     39  CG2 ILE A   1      25.940  -4.681   9.663  0.00  0.00    +0.002 C 
BRANCH  38  40
ATOM     40  CG1 ILE A   1      27.139  -6.741   8.772  0.00  0.00    +0.002 C 
ATOM     41  CD1 ILE A   1      28.178  -6.926   9.891  0.00  0.00    +0.000 C 
ENDBRANCH  38  40
ENDBRANCH  37  38
BRANCH  37  42
ATOM     42  N   ILE A   1      24.604  -5.823   7.286  0.00  0.00    -0.238 NA
ATOM     43  H   ILE A   1      24.548  -6.855   7.174  0.00  0.00    +0.142 HD
ENDBRANCH  37  42
ENDBRANCH  33  37
ENDBRANCH  32  34
BRANCH  32  44
ATOM     44  CB  THR A   2      28.619  -4.900   3.342  0.00  0.00    +0.137 C 
ATOM     45  CG2 THR A   2      29.630  -5.527   2.390  0.00  0.00    +0.034 C 
BRANCH  44  46
ATOM     46  OG1 THR A   2      27.292  -5.071   2.816  0.00  0.00    -0.382 OA
ATOM     47  HG1 THR A   2      26.638  -4.656   3.432  0.00  0.00    +0.210 HD
ENDBRANCH  44  46
ENDBRANCH  32  44
ENDBRANCH  28  32
ENDBRANCH  27  30
BRANCH  27  48
ATOM     48  CB  ASP A   3      32.709  -7.473   6.698  0.00  0.00    +0.143 C 
BRANCH  48  49
ATOM     49  CG  ASP A   3      32.004  -7.502   8.033  0.00  0.00    +0.367 C 
ATOM     50  OD2 ASP A   3      32.242  -6.588   8.846  0.00  0.00    -0.246 OA
ATOM     51  OD1 ASP A   3      31.217  -8.438   8.279  0.00  0.00    -0.246 OA
ENDBRANCH  48  49
ENDBRANCH  27  48
ENDBRANCH   1  27
TORSDOF 21
REMARK  Name = ../refined-set-2016/4g8v/4g8v_pocket.pdb
REMARK  141 active torsions:
REMARK  status: ('A' for Active; 'I' for Inactive)
REMARK    1  A    between atoms: _1  and  _3
REMARK    2  A    between atoms: _3  and  _4
REMARK    3  A    between atoms: _3  and  _6
REMARK    4  A    between atoms: _6  and  _7
REMARK    5  A    between atoms: _7  and  _8
REMARK    6  A    between atoms: _11  and  _13
REMARK    7  A    between atoms: _13  and  _14
REMARK    8  A    between atoms: _17  and  _19
REMARK    9  A    between atoms: _19  and  _20
REMARK   10  A    between atoms: _19  and  _22
REMARK   11  A    between atoms: _22  and  _23
REMARK   12  A    between atoms: _23  and  _24
REMARK   13  A    between atoms: _24  and  _25
REMARK   14  A    between atoms: _25  and  _26
REMARK   15  A    between atoms: _30  and  _32
REMARK   16  A    between atoms: _32  and  _33
REMARK   17  A    between atoms: _32  and  _35
REMARK   18  A    between atoms: _35  and  _36
REMARK   19  A    between atoms: _42  and  _44
REMARK   20  A    between atoms: _44  and  _45
REMARK   21  A    between atoms: _44  and  _47
REMARK   22  A    between atoms: _47  and  _48
REMARK   23  A    between atoms: _48  and  _49
REMARK   24  A    between atoms: _49  and  _50
REMARK   25  A    between atoms: _59  and  _61
REMARK   26  A    between atoms: _61  and  _62
REMARK   27  A    between atoms: _61  and  _64
REMARK   28  A    between atoms: _64  and  _65
REMARK   29  A    between atoms: _65  and  _66
REMARK   30  A    between atoms: _71  and  _73
REMARK   31  A    between atoms: _73  and  _74
REMARK   32  A    between atoms: _73  and  _76
REMARK   33  A    between atoms: _76  and  _77
REMARK   34  A    between atoms: _82  and  _84
REMARK   35  A    between atoms: _84  and  _85
REMARK   36  A    between atoms: _84  and  _87
REMARK   37  A    between atoms: _87  and  _88
REMARK   38  A    between atoms: _88  and  _89
REMARK   39  A    between atoms: _91  and  _93
REMARK   40  A    between atoms: _93  and  _94
REMARK   41  A    between atoms: _93  and  _96
REMARK   42  A    between atoms: _96  and  _97
REMARK   43  A    between atoms: _100  and  _102
REMARK   44  A    between atoms: _102  and  _103
REMARK   45  A    between atoms: _102  and  _105
REMARK   46  A    between atoms: _105  and  _106
REMARK   47  A    between atoms: _106  and  _107
REMARK   48  A    between atoms: _107  and  _108
REMARK   49  A    between atoms: _117  and  _119
REMARK   50  A    between atoms: _119  and  _120
REMARK   51  A    between atoms: _119  and  _122
REMARK   52  A    between atoms: _122  and  _123
REMARK   53  A    between atoms: _123  and  _124
REMARK   54  A    between atoms: _124  and  _125
REMARK   55  A    between atoms: _125  and  _126
REMARK   56  A    between atoms: _131  and  _132
REMARK   57  A    between atoms: _137  and  _139
REMARK   58  A    between atoms: _139  and  _140
REMARK   59  A    between atoms: _139  and  _142
REMARK   60  A    between atoms: _145  and  _147
REMARK   61  A    between atoms: _147  and  _148
REMARK   62  A    between atoms: _147  and  _150
REMARK   63  A    between atoms: _150  and  _151
REMARK   64  A    between atoms: _156  and  _158
REMARK   65  A    between atoms: _158  and  _159
REMARK   66  A    between atoms: _158  and  _161
REMARK   67  A    between atoms: _161  and  _162
REMARK   68  A    between atoms: _165  and  _167
REMARK   69  A    between atoms: _167  and  _168
REMARK   70  A    between atoms: _167  and  _170
REMARK   71  A    between atoms: _170  and  _171
REMARK   72  A    between atoms: _177  and  _179
REMARK   73  A    between atoms: _179  and  _180
REMARK   74  A    between atoms: _179  and  _182
REMARK   75  A    between atoms: _182  and  _183
REMARK   76  A    between atoms: _183  and  _184
REMARK   77  A    between atoms: _184  and  _185
REMARK   78  A    between atoms: _185  and  _186
REMARK   79  A    between atoms: _190  and  _192
REMARK   80  A    between atoms: _192  and  _193
REMARK   81  A    between atoms: _192  and  _195
REMARK   82  A    between atoms: _195  and  _196
REMARK   83  A    between atoms: _201  and  _203
REMARK   84  A    between atoms: _203  and  _204
REMARK   85  A    between atoms: _203  and  _206
REMARK   86  A    between atoms: _206  and  _207
REMARK   87  A    between atoms: _210  and  _212
REMARK   88  A    between atoms: _212  and  _213
REMARK   89  A    between atoms: _212  and  _215
REMARK   90  A    between atoms: _215  and  _216
REMARK   91  A    between atoms: _219  and  _221
REMARK   92  A    between atoms: _221  and  _222
REMARK   93  A    between atoms: _221  and  _224
REMARK   94  A    between atoms: _224  and  _225
REMARK   95  A    between atoms: _228  and  _230
REMARK   96  A    between atoms: _230  and  _231
REMARK   97  A    between atoms: _230  and  _233
REMARK   98  A    between atoms: _235  and  _237
REMARK   99  A    between atoms: _237  and  _238
REMARK  100  A    between atoms: _237  and  _240
REMARK  101  A    between atoms: _240  and  _241
REMARK  102  A    between atoms: _241  and  _242
REMARK  103  A    between atoms: _242  and  _243
REMARK  104  A    between atoms: _252  and  _254
REMARK  105  A    between atoms: _254  and  _255
REMARK  106  A    between atoms: _254  and  _257
REMARK  107  A    between atoms: _257  and  _258
REMARK  108  A    between atoms: _258  and  _259
REMARK  109  A    between atoms: _259  and  _260
REMARK  110  A    between atoms: _260  and  _261
REMARK  111  A    between atoms: _265  and  _267
REMARK  112  A    between atoms: _267  and  _268
REMARK  113  A    between atoms: _267  and  _270
REMARK  114  A    between atoms: _270  and  _271
REMARK  115  A    between atoms: _274  and  _276
REMARK  116  A    between atoms: _276  and  _277
REMARK  117  A    between atoms: _281  and  _282
REMARK  118  A    between atoms: _287  and  _289
REMARK  119  A    between atoms: _289  and  _290
REMARK  120  A    between atoms: _289  and  _292
REMARK  121  A    between atoms: _295  and  _297
REMARK  122  A    between atoms: _297  and  _298
REMARK  123  A    between atoms: _297  and  _300
REMARK  124  A    between atoms: _300  and  _301
REMARK  125  A    between atoms: _306  and  _308
REMARK  126  A    between atoms: _308  and  _309
REMARK  127  A    between atoms: _308  and  _311
REMARK  128  A    between atoms: _311  and  _312
REMARK  129  A    between atoms: _318  and  _320
REMARK  130  A    between atoms: _320  and  _321
REMARK  131  A    between atoms: _320  and  _323
REMARK  132  A    between atoms: _323  and  _324
REMARK  133  A    between atoms: _327  and  _329
REMARK  134  A    between atoms: _329  and  _330
REMARK  135  A    between atoms: _333  and  _335
REMARK  136  A    between atoms: _335  and  _336
REMARK  137  A    between atoms: _335  and  _338
REMARK  138  A    between atoms: _338  and  _339
REMARK  139  A    between atoms: _341  and  _343
REMARK  140  A    between atoms: _343  and  _344
REMARK  141  A    between atoms: _343  and  _346
REMARK                            x       y       z     vdW  Elec       q    Type
REMARK                         _______ _______ _______ _____ _____    ______ ____
ROOT
ATOM      1  CG  LYS A   1      26.764 -11.033  11.950  0.00  0.00    -0.000 C 
ENDROOT
BRANCH   1   2
ATOM      2  CB  LYS A   1      26.251  -9.719  12.519  0.00  0.00    +0.025 C 
BRANCH   2   3
ATOM      3  CA  LYS A   1      24.728  -9.662  12.707  0.00  0.00    +0.133 C 
BRANCH   3   4
ATOM      4  N   LYS A   1      24.074  -9.443  11.427  0.00  0.00    -0.239 NA
ATOM      5  H   LYS A   1      23.929  -8.471  11.085  0.00  0.00    +0.142 HD
ENDBRANCH   3   4
BRANCH   3   6
ATOM      6  C   LYS A   1      24.379  -8.540  13.652  0.00  0.00    +0.224 C 
ATOM      7  O   LYS A   1      23.880  -7.497  13.237  0.00  0.00    -0.287 OA
ENDBRANCH   3   6
ENDBRANCH   2   3
ENDBRANCH   1   2
BRANCH   1   8
ATOM      8  CD  LYS A   1      28.276 -11.026  11.801  0.00  0.00    -0.024 C 
BRANCH   8   9
ATOM      9  CE  LYS A   1      28.741 -12.370  11.262  0.00  0.00    -0.086 C 
BRANCH   9  10
ATOM     10  NZ  LYS A   1      30.222 -12.443  11.151  0.00  0.00    +0.380 N 
ATOM     11  HZ1 LYS A   1      30.646 -12.305  12.090  0.00  0.00    -0.089 HD
ATOM     12  HZ2 LYS A   1      30.495 -13.375  10.780  0.00  0.00    -0.089 HD
ATOM     13  HZ3 LYS A   1      30.557 -11.700  10.505  0.00  0.00    -0.089 HD
ENDBRANCH   9  10
ENDBRANCH   8   9
ENDBRANCH   1   8
TORSDOF 7
REMARK  Name = ../refined-set-2016/4g8v/4g8v_pocket.pdb
REMARK  141 active torsions:
REMARK  status: ('A' for Active; 'I' for Inactive)
REMARK    1  A    between atoms: _1  and  _3
REMARK    2  A    between atoms: _3  and  _4
REMARK    3  A    between atoms: _3  and  _6
REMARK    4  A    between atoms: _6  and  _7
REMARK    5  A    between atoms: _7  and  _8
REMARK    6  A    between atoms: _11  and  _13
REMARK    7  A    between atoms: _13  and  _14
REMARK    8  A    between atoms: _17  and  _19
REMARK    9  A    between atoms: _19  and  _20
REMARK   10  A    between atoms: _19  and  _22
REMARK   11  A    between atoms: _22  and  _23
REMARK   12  A    between atoms: _23  and  _24
REMARK   13  A    between atoms: _24  and  _25
REMARK   14  A    between atoms: _25  and  _26
REMARK   15  A    between atoms: _30  and  _32
REMARK   16  A    between atoms: _32  and  _33
REMARK   17  A    between atoms: _32  and  _35
REMARK   18  A    between atoms: _35  and  _36
REMARK   19  A    between atoms: _42  and  _44
REMARK   20  A    between atoms: _44  and  _45
REMARK   21  A    between atoms: _44  and  _47
REMARK   22  A    between atoms: _47  and  _48
REMARK   23  A    between atoms: _48  and  _49
REMARK   24  A    between atoms: _49  and  _50
REMARK   25  A    between atoms: _59  and  _61
REMARK   26  A    between atoms: _61  and  _62
REMARK   27  A    between atoms: _61  and  _64
REMARK   28  A    between atoms: _64  and  _65
REMARK   29  A    between atoms: _65  and  _66
REMARK   30  A    between atoms: _71  and  _73
REMARK   31  A    between atoms: _73  and  _74
REMARK   32  A    between atoms: _73  and  _76
REMARK   33  A    between atoms: _76  and  _77
REMARK   34  A    between atoms: _82  and  _84
REMARK   35  A    between atoms: _84  and  _85
REMARK   36  A    between atoms: _84  and  _87
REMARK   37  A    between atoms: _87  and  _88
REMARK   38  A    between atoms: _88  and  _89
REMARK   39  A    between atoms: _91  and  _93
REMARK   40  A    between atoms: _93  and  _94
REMARK   41  A    between atoms: _93  and  _96
REMARK   42  A    between atoms: _96  and  _97
REMARK   43  A    between atoms: _100  and  _102
REMARK   44  A    between atoms: _102  and  _103
REMARK   45  A    between atoms: _102  and  _105
REMARK   46  A    between atoms: _105  and  _106
REMARK   47  A    between atoms: _106  and  _107
REMARK   48  A    between atoms: _107  and  _108
REMARK   49  A    between atoms: _117  and  _119
REMARK   50  A    between atoms: _119  and  _120
REMARK   51  A    between atoms: _119  and  _122
REMARK   52  A    between atoms: _122  and  _123
REMARK   53  A    between atoms: _123  and  _124
REMARK   54  A    between atoms: _124  and  _125
REMARK   55  A    between atoms: _125  and  _126
REMARK   56  A    between atoms: _131  and  _132
REMARK   57  A    between atoms: _137  and  _139
REMARK   58  A    between atoms: _139  and  _140
REMARK   59  A    between atoms: _139  and  _142
REMARK   60  A    between atoms: _145  and  _147
REMARK   61  A    between atoms: _147  and  _148
REMARK   62  A    between atoms: _147  and  _150
REMARK   63  A    between atoms: _150  and  _151
REMARK   64  A    between atoms: _156  and  _158
REMARK   65  A    between atoms: _158  and  _159
REMARK   66  A    between atoms: _158  and  _161
REMARK   67  A    between atoms: _161  and  _162
REMARK   68  A    between atoms: _165  and  _167
REMARK   69  A    between atoms: _167  and  _168
REMARK   70  A    between atoms: _167  and  _170
REMARK   71  A    between atoms: _170  and  _171
REMARK   72  A    between atoms: _177  and  _179
REMARK   73  A    between atoms: _179  and  _180
REMARK   74  A    between atoms: _179  and  _182
REMARK   75  A    between atoms: _182  and  _183
REMARK   76  A    between atoms: _183  and  _184
REMARK   77  A    between atoms: _184  and  _185
REMARK   78  A    between atoms: _185  and  _186
REMARK   79  A    between atoms: _190  and  _192
REMARK   80  A    between atoms: _192  and  _193
REMARK   81  A    between atoms: _192  and  _195
REMARK   82  A    between atoms: _195  and  _196
REMARK   83  A    between atoms: _201  and  _203
REMARK   84  A    between atoms: _203  and  _204
REMARK   85  A    between atoms: _203  and  _206
REMARK   86  A    between atoms: _206  and  _207
REMARK   87  A    between atoms: _210  and  _212
REMARK   88  A    between atoms: _212  and  _213
REMARK   89  A    between atoms: _212  and  _215
REMARK   90  A    between atoms: _215  and  _216
REMARK   91  A    between atoms: _219  and  _221
REMARK   92  A    between atoms: _221  and  _222
REMARK   93  A    between atoms: _221  and  _224
REMARK   94  A    between atoms: _224  and  _225
REMARK   95  A    between atoms: _228  and  _230
REMARK   96  A    between atoms: _230  and  _231
REMARK   97  A    between atoms: _230  and  _233
REMARK   98  A    between atoms: _235  and  _237
REMARK   99  A    between atoms: _237  and  _238
REMARK  100  A    between atoms: _237  and  _240
REMARK  101  A    between atoms: _240  and  _241
REMARK  102  A    between atoms: _241  and  _242
REMARK  103  A    between atoms: _242  and  _243
REMARK  104  A    between atoms: _252  and  _254
REMARK  105  A    between atoms: _254  and  _255
REMARK  106  A    between atoms: _254  and  _257
REMARK  107  A    between atoms: _257  and  _258
REMARK  108  A    between atoms: _258  and  _259
REMARK  109  A    between atoms: _259  and  _260
REMARK  110  A    between atoms: _260  and  _261
REMARK  111  A    between atoms: _265  and  _267
REMARK  112  A    between atoms: _267  and  _268
REMARK  113  A    between atoms: _267  and  _270
REMARK  114  A    between atoms: _270  and  _271
REMARK  115  A    between atoms: _274  and  _276
REMARK  116  A    between atoms: _276  and  _277
REMARK  117  A    between atoms: _281  and  _282
REMARK  118  A    between atoms: _287  and  _289
REMARK  119  A    between atoms: _289  and  _290
REMARK  120  A    between atoms: _289  and  _292
REMARK  121  A    between atoms: _295  and  _297
REMARK  122  A    between atoms: _297  and  _298
REMARK  123  A    between atoms: _297  and  _300
REMARK  124  A    between atoms: _300  and  _301
REMARK  125  A    between atoms: _306  and  _308
REMARK  126  A    between atoms: _308  and  _309
REMARK  127  A    between atoms: _308  and  _311
REMARK  128  A    between atoms: _311  and  _312
REMARK  129  A    between atoms: _318  and  _320
REMARK  130  A    between atoms: _320  and  _321
REMARK  131  A    between atoms: _320  and  _323
REMARK  132  A    between atoms: _323  and  _324
REMARK  133  A    between atoms: _327  and  _329
REMARK  134  A    between atoms: _329  and  _330
REMARK  135  A    between atoms: _333  and  _335
REMARK  136  A    between atoms: _335  and  _336
REMARK  137  A    between atoms: _335  and  _338
REMARK  138  A    between atoms: _338  and  _339
REMARK  139  A    between atoms: _341  and  _343
REMARK  140  A    between atoms: _343  and  _344
REMARK  141  A    between atoms: _343  and  _346
REMARK                            x       y       z     vdW  Elec       q    Type
REMARK                         _______ _______ _______ _____ _____    ______ ____
ROOT
ATOM      1  CA  ILE A   1      28.684  -3.167  18.485  0.00  0.00    +0.133 C 
ENDROOT
BRANCH   1   2
ATOM      2  N   ILE A   1      28.256  -3.817  17.260  0.00  0.00    -0.239 NA
ATOM      3  H   ILE A   1      28.964  -4.067  16.540  0.00  0.00    +0.142 HD
ENDBRANCH   1   2
BRANCH   1   4
ATOM      4  CB  ILE A   1      29.665  -4.023  19.281  0.00  0.00    +0.023 C 
ATOM      5  CG2 ILE A   1      30.123  -3.258  20.529  0.00  0.00    +0.002 C 
BRANCH   4   6
ATOM      6  CG1 ILE A   1      28.995  -5.341  19.678  0.00  0.00    +0.002 C 
ATOM      7  CD1 ILE A   1      29.968  -6.399  20.212  0.00  0.00    +0.000 C 
ENDBRANCH   4   6
ENDBRANCH   1   4
BRANCH   1   8
ATOM      8  C   ILE A   1      29.344  -1.845  18.126  0.00  0.00    +0.224 C 
ATOM      9  O   ILE A   1      30.309  -1.814  17.357  0.00  0.00    -0.287 OA
ENDBRANCH   1   8
TORSDOF 4
REMARK  Name = ../refined-set-2016/4g8v/4g8v_pocket.pdb
REMARK  141 active torsions:
REMARK  status: ('A' for Active; 'I' for Inactive)
REMARK    1  A    between atoms: _1  and  _3
REMARK    2  A    between atoms: _3  and  _4
REMARK    3  A    between atoms: _3  and  _6
REMARK    4  A    between atoms: _6  and  _7
REMARK    5  A    between atoms: _7  and  _8
REMARK    6  A    between atoms: _11  and  _13
REMARK    7  A    between atoms: _13  and  _14
REMARK    8  A    between atoms: _17  and  _19
REMARK    9  A    between atoms: _19  and  _20
REMARK   10  A    between atoms: _19  and  _22
REMARK   11  A    between atoms: _22  and  _23
REMARK   12  A    between atoms: _23  and  _24
REMARK   13  A    between atoms: _24  and  _25
REMARK   14  A    between atoms: _25  and  _26
REMARK   15  A    between atoms: _30  and  _32
REMARK   16  A    between atoms: _32  and  _33
REMARK   17  A    between atoms: _32  and  _35
REMARK   18  A    between atoms: _35  and  _36
REMARK   19  A    between atoms: _42  and  _44
REMARK   20  A    between atoms: _44  and  _45
REMARK   21  A    between atoms: _44  and  _47
REMARK   22  A    between atoms: _47  and  _48
REMARK   23  A    between atoms: _48  and  _49
REMARK   24  A    between atoms: _49  and  _50
REMARK   25  A    between atoms: _59  and  _61
REMARK   26  A    between atoms: _61  and  _62
REMARK   27  A    between atoms: _61  and  _64
REMARK   28  A    between atoms: _64  and  _65
REMARK   29  A    between atoms: _65  and  _66
REMARK   30  A    between atoms: _71  and  _73
REMARK   31  A    between atoms: _73  and  _74
REMARK   32  A    between atoms: _73  and  _76
REMARK   33  A    between atoms: _76  and  _77
REMARK   34  A    between atoms: _82  and  _84
REMARK   35  A    between atoms: _84  and  _85
REMARK   36  A    between atoms: _84  and  _87
REMARK   37  A    between atoms: _87  and  _88
REMARK   38  A    between atoms: _88  and  _89
REMARK   39  A    between atoms: _91  and  _93
REMARK   40  A    between atoms: _93  and  _94
REMARK   41  A    between atoms: _93  and  _96
REMARK   42  A    between atoms: _96  and  _97
REMARK   43  A    between atoms: _100  and  _102
REMARK   44  A    between atoms: _102  and  _103
REMARK   45  A    between atoms: _102  and  _105
REMARK   46  A    between atoms: _105  and  _106
REMARK   47  A    between atoms: _106  and  _107
REMARK   48  A    between atoms: _107  and  _108
REMARK   49  A    between atoms: _117  and  _119
REMARK   50  A    between atoms: _119  and  _120
REMARK   51  A    between atoms: _119  and  _122
REMARK   52  A    between atoms: _122  and  _123
REMARK   53  A    between atoms: _123  and  _124
REMARK   54  A    between atoms: _124  and  _125
REMARK   55  A    between atoms: _125  and  _126
REMARK   56  A    between atoms: _131  and  _132
REMARK   57  A    between atoms: _137  and  _139
REMARK   58  A    between atoms: _139  and  _140
REMARK   59  A    between atoms: _139  and  _142
REMARK   60  A    between atoms: _145  and  _147
REMARK   61  A    between atoms: _147  and  _148
REMARK   62  A    between atoms: _147  and  _150
REMARK   63  A    between atoms: _150  and  _151
REMARK   64  A    between atoms: _156  and  _158
REMARK   65  A    between atoms: _158  and  _159
REMARK   66  A    between atoms: _158  and  _161
REMARK   67  A    between atoms: _161  and  _162
REMARK   68  A    between atoms: _165  and  _167
REMARK   69  A    between atoms: _167  and  _168
REMARK   70  A    between atoms: _167  and  _170
REMARK   71  A    between atoms: _170  and  _171
REMARK   72  A    between atoms: _177  and  _179
REMARK   73  A    between atoms: _179  and  _180
REMARK   74  A    between atoms: _179  and  _182
REMARK   75  A    between atoms: _182  and  _183
REMARK   76  A    between atoms: _183  and  _184
REMARK   77  A    between atoms: _184  and  _185
REMARK   78  A    between atoms: _185  and  _186
REMARK   79  A    between atoms: _190  and  _192
REMARK   80  A    between atoms: _192  and  _193
REMARK   81  A    between atoms: _192  and  _195
REMARK   82  A    between atoms: _195  and  _196
REMARK   83  A    between atoms: _201  and  _203
REMARK   84  A    between atoms: _203  and  _204
REMARK   85  A    between atoms: _203  and  _206
REMARK   86  A    between atoms: _206  and  _207
REMARK   87  A    between atoms: _210  and  _212
REMARK   88  A    between atoms: _212  and  _213
REMARK   89  A    between atoms: _212  and  _215
REMARK   90  A    between atoms: _215  and  _216
REMARK   91  A    between atoms: _219  and  _221
REMARK   92  A    between atoms: _221  and  _222
REMARK   93  A    between atoms: _221  and  _224
REMARK   94  A    between atoms: _224  and  _225
REMARK   95  A    between atoms: _228  and  _230
REMARK   96  A    between atoms: _230  and  _231
REMARK   97  A    between atoms: _230  and  _233
REMARK   98  A    between atoms: _235  and  _237
REMARK   99  A    between atoms: _237  and  _238
REMARK  100  A    between atoms: _237  and  _240
REMARK  101  A    between atoms: _240  and  _241
REMARK  102  A    between atoms: _241  and  _242
REMARK  103  A    between atoms: _242  and  _243
REMARK  104  A    between atoms: _252  and  _254
REMARK  105  A    between atoms: _254  and  _255
REMARK  106  A    between atoms: _254  and  _257
REMARK  107  A    between atoms: _257  and  _258
REMARK  108  A    between atoms: _258  and  _259
REMARK  109  A    between atoms: _259  and  _260
REMARK  110  A    between atoms: _260  and  _261
REMARK  111  A    between atoms: _265  and  _267
REMARK  112  A    between atoms: _267  and  _268
REMARK  113  A    between atoms: _267  and  _270
REMARK  114  A    between atoms: _270  and  _271
REMARK  115  A    between atoms: _274  and  _276
REMARK  116  A    between atoms: _276  and  _277
REMARK  117  A    between atoms: _281  and  _282
REMARK  118  A    between atoms: _287  and  _289
REMARK  119  A    between atoms: _289  and  _290
REMARK  120  A    between atoms: _289  and  _292
REMARK  121  A    between atoms: _295  and  _297
REMARK  122  A    between atoms: _297  and  _298
REMARK  123  A    between atoms: _297  and  _300
REMARK  124  A    between atoms: _300  and  _301
REMARK  125  A    between atoms: _306  and  _308
REMARK  126  A    between atoms: _308  and  _309
REMARK  127  A    between atoms: _308  and  _311
REMARK  128  A    between atoms: _311  and  _312
REMARK  129  A    between atoms: _318  and  _320
REMARK  130  A    between atoms: _320  and  _321
REMARK  131  A    between atoms: _320  and  _323
REMARK  132  A    between atoms: _323  and  _324
REMARK  133  A    between atoms: _327  and  _329
REMARK  134  A    between atoms: _329  and  _330
REMARK  135  A    between atoms: _333  and  _335
REMARK  136  A    between atoms: _335  and  _336
REMARK  137  A    between atoms: _335  and  _338
REMARK  138  A    between atoms: _338  and  _339
REMARK  139  A    between atoms: _341  and  _343
REMARK  140  A    between atoms: _343  and  _344
REMARK  141  A    between atoms: _343  and  _346
REMARK                            x       y       z     vdW  Elec       q    Type
REMARK                         _______ _______ _______ _____ _____    ______ ____
ROOT
ATOM      1  CA  ALA A   1      31.090   3.054  20.661  0.00  0.00    +0.133 C 
ATOM      2  CB  ALA A   1      32.575   3.321  20.629  0.00  0.00    +0.027 C 
ENDROOT
BRANCH   1   3
ATOM      3  N   ALA A   1      30.704   2.198  19.546  0.00  0.00    -0.239 NA
ATOM      4  H   ALA A   1      31.194   2.302  18.635  0.00  0.00    +0.142 HD
ENDBRANCH   1   3
BRANCH   1   5
ATOM      5  C   ALA A   1      30.340   4.352  20.485  0.00  0.00    +0.224 C 
ATOM      6  O   ALA A   1      30.273   4.879  19.381  0.00  0.00    -0.287 OA
ENDBRANCH   1   5
TORSDOF 2
REMARK  Name = ../refined-set-2016/4g8v/4g8v_pocket.pdb
REMARK  141 active torsions:
REMARK  status: ('A' for Active; 'I' for Inactive)
REMARK    1  A    between atoms: _1  and  _3
REMARK    2  A    between atoms: _3  and  _4
REMARK    3  A    between atoms: _3  and  _6
REMARK    4  A    between atoms: _6  and  _7
REMARK    5  A    between atoms: _7  and  _8
REMARK    6  A    between atoms: _11  and  _13
REMARK    7  A    between atoms: _13  and  _14
REMARK    8  A    between atoms: _17  and  _19
REMARK    9  A    between atoms: _19  and  _20
REMARK   10  A    between atoms: _19  and  _22
REMARK   11  A    between atoms: _22  and  _23
REMARK   12  A    between atoms: _23  and  _24
REMARK   13  A    between atoms: _24  and  _25
REMARK   14  A    between atoms: _25  and  _26
REMARK   15  A    between atoms: _30  and  _32
REMARK   16  A    between atoms: _32  and  _33
REMARK   17  A    between atoms: _32  and  _35
REMARK   18  A    between atoms: _35  and  _36
REMARK   19  A    between atoms: _42  and  _44
REMARK   20  A    between atoms: _44  and  _45
REMARK   21  A    between atoms: _44  and  _47
REMARK   22  A    between atoms: _47  and  _48
REMARK   23  A    between atoms: _48  and  _49
REMARK   24  A    between atoms: _49  and  _50
REMARK   25  A    between atoms: _59  and  _61
REMARK   26  A    between atoms: _61  and  _62
REMARK   27  A    between atoms: _61  and  _64
REMARK   28  A    between atoms: _64  and  _65
REMARK   29  A    between atoms: _65  and  _66
REMARK   30  A    between atoms: _71  and  _73
REMARK   31  A    between atoms: _73  and  _74
REMARK   32  A    between atoms: _73  and  _76
REMARK   33  A    between atoms: _76  and  _77
REMARK   34  A    between atoms: _82  and  _84
REMARK   35  A    between atoms: _84  and  _85
REMARK   36  A    between atoms: _84  and  _87
REMARK   37  A    between atoms: _87  and  _88
REMARK   38  A    between atoms: _88  and  _89
REMARK   39  A    between atoms: _91  and  _93
REMARK   40  A    between atoms: _93  and  _94
REMARK   41  A    between atoms: _93  and  _96
REMARK   42  A    between atoms: _96  and  _97
REMARK   43  A    between atoms: _100  and  _102
REMARK   44  A    between atoms: _102  and  _103
REMARK   45  A    between atoms: _102  and  _105
REMARK   46  A    between atoms: _105  and  _106
REMARK   47  A    between atoms: _106  and  _107
REMARK   48  A    between atoms: _107  and  _108
REMARK   49  A    between atoms: _117  and  _119
REMARK   50  A    between atoms: _119  and  _120
REMARK   51  A    between atoms: _119  and  _122
REMARK   52  A    between atoms: _122  and  _123
REMARK   53  A    between atoms: _123  and  _124
REMARK   54  A    between atoms: _124  and  _125
REMARK   55  A    between atoms: _125  and  _126
REMARK   56  A    between atoms: _131  and  _132
REMARK   57  A    between atoms: _137  and  _139
REMARK   58  A    between atoms: _139  and  _140
REMARK   59  A    between atoms: _139  and  _142
REMARK   60  A    between atoms: _145  and  _147
REMARK   61  A    between atoms: _147  and  _148
REMARK   62  A    between atoms: _147  and  _150
REMARK   63  A    between atoms: _150  and  _151
REMARK   64  A    between atoms: _156  and  _158
REMARK   65  A    between atoms: _158  and  _159
REMARK   66  A    between atoms: _158  and  _161
REMARK   67  A    between atoms: _161  and  _162
REMARK   68  A    between atoms: _165  and  _167
REMARK   69  A    between atoms: _167  and  _168
REMARK   70  A    between atoms: _167  and  _170
REMARK   71  A    between atoms: _170  and  _171
REMARK   72  A    between atoms: _177  and  _179
REMARK   73  A    between atoms: _179  and  _180
REMARK   74  A    between atoms: _179  and  _182
REMARK   75  A    between atoms: _182  and  _183
REMARK   76  A    between atoms: _183  and  _184
REMARK   77  A    between atoms: _184  and  _185
REMARK   78  A    between atoms: _185  and  _186
REMARK   79  A    between atoms: _190  and  _192
REMARK   80  A    between atoms: _192  and  _193
REMARK   81  A    between atoms: _192  and  _195
REMARK   82  A    between atoms: _195  and  _196
REMARK   83  A    between atoms: _201  and  _203
REMARK   84  A    between atoms: _203  and  _204
REMARK   85  A    between atoms: _203  and  _206
REMARK   86  A    between atoms: _206  and  _207
REMARK   87  A    between atoms: _210  and  _212
REMARK   88  A    between atoms: _212  and  _213
REMARK   89  A    between atoms: _212  and  _215
REMARK   90  A    between atoms: _215  and  _216
REMARK   91  A    between atoms: _219  and  _221
REMARK   92  A    between atoms: _221  and  _222
REMARK   93  A    between atoms: _221  and  _224
REMARK   94  A    between atoms: _224  and  _225
REMARK   95  A    between atoms: _228  and  _230
REMARK   96  A    between atoms: _230  and  _231
REMARK   97  A    between atoms: _230  and  _233
REMARK   98  A    between atoms: _235  and  _237
REMARK   99  A    between atoms: _237  and  _238
REMARK  100  A    between atoms: _237  and  _240
REMARK  101  A    between atoms: _240  and  _241
REMARK  102  A    between atoms: _241  and  _242
REMARK  103  A    between atoms: _242  and  _243
REMARK  104  A    between atoms: _252  and  _254
REMARK  105  A    between atoms: _254  and  _255
REMARK  106  A    between atoms: _254  and  _257
REMARK  107  A    between atoms: _257  and  _258
REMARK  108  A    between atoms: _258  and  _259
REMARK  109  A    between atoms: _259  and  _260
REMARK  110  A    between atoms: _260  and  _261
REMARK  111  A    between atoms: _265  and  _267
REMARK  112  A    between atoms: _267  and  _268
REMARK  113  A    between atoms: _267  and  _270
REMARK  114  A    between atoms: _270  and  _271
REMARK  115  A    between atoms: _274  and  _276
REMARK  116  A    between atoms: _276  and  _277
REMARK  117  A    between atoms: _281  and  _282
REMARK  118  A    between atoms: _287  and  _289
REMARK  119  A    between atoms: _289  and  _290
REMARK  120  A    between atoms: _289  and  _292
REMARK  121  A    between atoms: _295  and  _297
REMARK  122  A    between atoms: _297  and  _298
REMARK  123  A    between atoms: _297  and  _300
REMARK  124  A    between atoms: _300  and  _301
REMARK  125  A    between atoms: _306  and  _308
REMARK  126  A    between atoms: _308  and  _309
REMARK  127  A    between atoms: _308  and  _311
REMARK  128  A    between atoms: _311  and  _312
REMARK  129  A    between atoms: _318  and  _320
REMARK  130  A    between atoms: _320  and  _321
REMARK  131  A    between atoms: _320  and  _323
REMARK  132  A    between atoms: _323  and  _324
REMARK  133  A    between atoms: _327  and  _329
REMARK  134  A    between atoms: _329  and  _330
REMARK  135  A    between atoms: _333  and  _335
REMARK  136  A    between atoms: _335  and  _336
REMARK  137  A    between atoms: _335  and  _338
REMARK  138  A    between atoms: _338  and  _339
REMARK  139  A    between atoms: _341  and  _343
REMARK  140  A    between atoms: _343  and  _344
REMARK  141  A    between atoms: _343  and  _346
REMARK                            x       y       z     vdW  Elec       q    Type
REMARK                         _______ _______ _______ _____ _____    ______ ____
ROOT
ATOM      1  CA  PHE A   4      32.313   0.683  14.921  0.00  0.00    +0.153 C 
ENDROOT
BRANCH   1   2
ATOM      2  C   PHE A   4      33.273  -0.302  15.555  0.00  0.00    +0.241 C 
ATOM      3  N   ASP A   5      32.828  -1.021  16.589  0.00  0.00    -0.297 N 
ATOM      4  H   ASP A   5      31.821  -0.995  16.847  0.00  0.00    +0.150 HD
ATOM      5  O   PHE A   4      34.424  -0.396  15.126  0.00  0.00    -0.273 OA
BRANCH   3   6
ATOM      6  CA  ASP A   5      33.757  -1.841  17.353  0.00  0.00    +0.160 C 
BRANCH   6   7
ATOM      7  C   ASP A   5      33.829  -3.285  16.851  0.00  0.00    +0.241 C 
ATOM      8  O   ASP A   5      34.925  -3.862  16.745  0.00  0.00    -0.273 OA
ATOM      9  N   ALA A   6      32.672  -3.869  16.560  0.00  0.00    -0.297 N 
ATOM     10  H   ALA A   6      31.796  -3.309  16.584  0.00  0.00    +0.150 HD
BRANCH   9  11
ATOM     11  CA  ALA A   6      32.610  -5.291  16.205  0.00  0.00    +0.149 C 
ATOM     12  CB  ALA A   6      32.967  -6.140  17.404  0.00  0.00    +0.031 C 
BRANCH  11  13
ATOM     13  C   ALA A   6      31.238  -5.686  15.714  0.00  0.00    +0.241 C 
ATOM     14  O   ALA A   6      30.267  -4.974  15.913  0.00  0.00    -0.273 OA
ATOM     15  N   SER A   7      31.155  -6.850  15.082  0.00  0.00    -0.295 N 
ATOM     16  H   SER A   7      32.022  -7.338  14.778  0.00  0.00    +0.150 HD
BRANCH  15  17
ATOM     17  CA  SER A   7      29.860  -7.444  14.814  0.00  0.00    +0.178 C 
BRANCH  17  18
ATOM     18  C   SER A   7      29.897  -8.839  15.397  0.00  0.00    +0.243 C 
ATOM     19  N   VAL A   8      28.772  -9.269  15.955  0.00  0.00    -0.295 N 
ATOM     20  H   VAL A   8      27.925  -8.665  15.936  0.00  0.00    +0.150 HD
ATOM     21  O   SER A   7      30.936  -9.504  15.370  0.00  0.00    -0.273 OA
BRANCH  19  22
ATOM     22  CA  VAL A   8      28.710 -10.577  16.594  0.00  0.00    +0.176 C 
BRANCH  22  23
ATOM     23  C   VAL A   8      27.457 -11.348  16.223  0.00  0.00    +0.382 C 
ATOM     24  OXT VAL A   8      27.440 -12.562  16.417  0.00  0.00    -0.244 OA
ATOM     25  O   VAL A   8      26.450 -10.804  15.764  0.00  0.00    -0.244 OA
ENDBRANCH  22  23
BRANCH  22  26
ATOM     26  CB  VAL A   8      28.798 -10.469  18.127  0.00  0.00    +0.029 C 
ATOM     27  CG2 VAL A   8      27.674  -9.602  18.662  0.00  0.00    +0.002 C 
ATOM     28  CG1 VAL A   8      30.155  -9.927  18.558  0.00  0.00    +0.002 C 
ENDBRANCH  22  26
ENDBRANCH  19  22
ENDBRANCH  17  18
BRANCH  17  29
ATOM     29  CB  SER A   7      29.536  -7.480  13.321  0.00  0.00    +0.166 C 
BRANCH  29  30
ATOM     30  OG  SER A   7      30.452  -8.300  12.628  0.00  0.00    -0.380 OA
ATOM     31  H   SER A   7      31.368  -7.944  12.747  0.00  0.00    +0.211 HD
ENDBRANCH  29  30
ENDBRANCH  17  29
ENDBRANCH  15  17
ENDBRANCH  11  13
ENDBRANCH   9  11
ENDBRANCH   6   7
BRANCH   6  32
ATOM     32  CB  ASP A   5      33.401  -1.824  18.841  0.00  0.00    +0.143 C 
BRANCH  32  33
ATOM     33  CG  ASP A   5      34.604  -2.097  19.732  0.00  0.00    +0.367 C 
ATOM     34  OD2 ASP A   5      34.509  -2.992  20.593  0.00  0.00    -0.246 OA
ATOM     35  OD1 ASP A   5      35.651  -1.431  19.570  0.00  0.00    -0.246 OA
ENDBRANCH  32  33
ENDBRANCH   6  32
ENDBRANCH   3   6
ENDBRANCH   1   2
BRANCH   1  38
ATOM     36  C   HIS A   3      32.446   2.817  16.047  0.00  0.00    +0.241 C 
ATOM     37  O   HIS A   3      31.458   2.557  16.731  0.00  0.00    -0.273 OA
ATOM     38  N   PHE A   4      32.902   2.004  15.102  0.00  0.00    -0.297 N 
ATOM     39  H   PHE A   4      33.683   2.311  14.488  0.00  0.00    +0.150 HD
BRANCH  36  40
ATOM     40  CA  HIS A   3      33.200   4.116  16.255  0.00  0.00    +0.155 C 
BRANCH  40  42
ATOM     41  C   VAL A   2      32.470   6.420  16.398  0.00  0.00    +0.241 C 
ATOM     42  N   HIS A   3      32.295   5.150  16.757  0.00  0.00    -0.297 N 
ATOM     43  H   HIS A   3      31.515   4.893  17.395  0.00  0.00    +0.150 HD
ATOM     44  O   VAL A   2      33.438   6.788  15.732  0.00  0.00    -0.273 OA
BRANCH  41  45
ATOM     45  CA  VAL A   2      31.420   7.429  16.854  0.00  0.00    +0.148 C 
BRANCH  45  47
ATOM     46  C   PRO A   1      29.009   7.109  16.892  0.00  0.00    +0.239 C 
ATOM     47  N   VAL A   2      30.213   6.784  17.366  0.00  0.00    -0.297 N 
ATOM     48  H   VAL A   2      30.294   6.062  18.110  0.00  0.00    +0.150 HD
ATOM     49  O   PRO A   1      28.836   7.966  16.020  0.00  0.00    -0.274 OA
BRANCH  46  51
ATOM     50  N   PRO A   1      26.670   7.239  17.733  0.00  0.00    -0.210 NA
ATOM     51  CA  PRO A   1      27.812   6.354  17.463  0.00  0.00    +0.149 C 
ATOM     52  CB  PRO A   1      27.263   5.374  16.426  0.00  0.00    +0.028 C 
ATOM     53  CG  PRO A   1      25.754   5.429  16.596  0.00  0.00    +0.021 C 
ATOM     54  CD  PRO A   1      25.463   6.852  16.971  0.00  0.00    +0.089 C 
ENDBRANCH  46  51
ENDBRANCH  45  47
BRANCH  45  55
ATOM     55  CB  VAL A   2      32.036   8.421  17.852  0.00  0.00    +0.027 C 
ATOM     56  CG2 VAL A   2      32.411   7.717  19.173  0.00  0.00    +0.002 C 
ATOM     57  CG1 VAL A   2      31.092   9.568  18.119  0.00  0.00    +0.002 C 
ENDBRANCH  45  55
ENDBRANCH  41  45
ENDBRANCH  40  42
BRANCH  40  58
ATOM     58  CB  HIS A   3      34.376   3.870  17.215  0.00  0.00    +0.076 C 
BRANCH  58  59
ATOM     59  CG  HIS A   3      35.172   5.097  17.541  0.00  0.00    +0.082 A 
ATOM     60  CD2 HIS A   3      35.358   5.753  18.712  0.00  0.00    +0.115 A 
ATOM     61  NE2 HIS A   3      36.187   6.817  18.455  0.00  0.00    -0.221 NA
ATOM     62  CE1 HIS A   3      36.512   6.810  17.173  0.00  0.00    +0.199 A 
ATOM     63  ND1 HIS A   3      35.922   5.774  16.602  0.00  0.00    -0.227 NA
ENDBRANCH  58  59
ENDBRANCH  40  58
ENDBRANCH  36  40
ENDBRANCH   1  38
BRANCH   1  64
ATOM     64  CB  PHE A   4      32.129   0.374  13.440  0.00  0.00    +0.055 C 
BRANCH  64  65
ATOM     65  CG  PHE A   4      31.322  -0.866  13.190  0.00  0.00    -0.020 A 
ATOM     66  CD2 PHE A   4      31.928  -2.121  13.216  0.00  0.00    -0.004 A 
ATOM     67  CE2 PHE A   4      31.189  -3.273  12.998  0.00  0.00    -0.000 A 
ATOM     68  CZ  PHE A   4      29.823  -3.173  12.771  0.00  0.00    -0.000 A 
ATOM     69  CE1 PHE A   4      29.205  -1.931  12.754  0.00  0.00    -0.000 A 
ATOM     70  CD1 PHE A   4      29.958  -0.781  12.961  0.00  0.00    -0.004 A 
ENDBRANCH  64  65
ENDBRANCH   1  64
TORSDOF 25
REMARK  Name = ../refined-set-2016/4g8v/4g8v_pocket.pdb
REMARK  141 active torsions:
REMARK  status: ('A' for Active; 'I' for Inactive)
REMARK    1  A    between atoms: _1  and  _3
REMARK    2  A    between atoms: _3  and  _4
REMARK    3  A    between atoms: _3  and  _6
REMARK    4  A    between atoms: _6  and  _7
REMARK    5  A    between atoms: _7  and  _8
REMARK    6  A    between atoms: _11  and  _13
REMARK    7  A    between atoms: _13  and  _14
REMARK    8  A    between atoms: _17  and  _19
REMARK    9  A    between atoms: _19  and  _20
REMARK   10  A    between atoms: _19  and  _22
REMARK   11  A    between atoms: _22  and  _23
REMARK   12  A    between atoms: _23  and  _24
REMARK   13  A    between atoms: _24  and  _25
REMARK   14  A    between atoms: _25  and  _26
REMARK   15  A    between atoms: _30  and  _32
REMARK   16  A    between atoms: _32  and  _33
REMARK   17  A    between atoms: _32  and  _35
REMARK   18  A    between atoms: _35  and  _36
REMARK   19  A    between atoms: _42  and  _44
REMARK   20  A    between atoms: _44  and  _45
REMARK   21  A    between atoms: _44  and  _47
REMARK   22  A    between atoms: _47  and  _48
REMARK   23  A    between atoms: _48  and  _49
REMARK   24  A    between atoms: _49  and  _50
REMARK   25  A    between atoms: _59  and  _61
REMARK   26  A    between atoms: _61  and  _62
REMARK   27  A    between atoms: _61  and  _64
REMARK   28  A    between atoms: _64  and  _65
REMARK   29  A    between atoms: _65  and  _66
REMARK   30  A    between atoms: _71  and  _73
REMARK   31  A    between atoms: _73  and  _74
REMARK   32  A    between atoms: _73  and  _76
REMARK   33  A    between atoms: _76  and  _77
REMARK   34  A    between atoms: _82  and  _84
REMARK   35  A    between atoms: _84  and  _85
REMARK   36  A    between atoms: _84  and  _87
REMARK   37  A    between atoms: _87  and  _88
REMARK   38  A    between atoms: _88  and  _89
REMARK   39  A    between atoms: _91  and  _93
REMARK   40  A    between atoms: _93  and  _94
REMARK   41  A    between atoms: _93  and  _96
REMARK   42  A    between atoms: _96  and  _97
REMARK   43  A    between atoms: _100  and  _102
REMARK   44  A    between atoms: _102  and  _103
REMARK   45  A    between atoms: _102  and  _105
REMARK   46  A    between atoms: _105  and  _106
REMARK   47  A    between atoms: _106  and  _107
REMARK   48  A    between atoms: _107  and  _108
REMARK   49  A    between atoms: _117  and  _119
REMARK   50  A    between atoms: _119  and  _120
REMARK   51  A    between atoms: _119  and  _122
REMARK   52  A    between atoms: _122  and  _123
REMARK   53  A    between atoms: _123  and  _124
REMARK   54  A    between atoms: _124  and  _125
REMARK   55  A    between atoms: _125  and  _126
REMARK   56  A    between atoms: _131  and  _132
REMARK   57  A    between atoms: _137  and  _139
REMARK   58  A    between atoms: _139  and  _140
REMARK   59  A    between atoms: _139  and  _142
REMARK   60  A    between atoms: _145  and  _147
REMARK   61  A    between atoms: _147  and  _148
REMARK   62  A    between atoms: _147  and  _150
REMARK   63  A    between atoms: _150  and  _151
REMARK   64  A    between atoms: _156  and  _158
REMARK   65  A    between atoms: _158  and  _159
REMARK   66  A    between atoms: _158  and  _161
REMARK   67  A    between atoms: _161  and  _162
REMARK   68  A    between atoms: _165  and  _167
REMARK   69  A    between atoms: _167  and  _168
REMARK   70  A    between atoms: _167  and  _170
REMARK   71  A    between atoms: _170  and  _171
REMARK   72  A    between atoms: _177  and  _179
REMARK   73  A    between atoms: _179  and  _180
REMARK   74  A    between atoms: _179  and  _182
REMARK   75  A    between atoms: _182  and  _183
REMARK   76  A    between atoms: _183  and  _184
REMARK   77  A    between atoms: _184  and  _185
REMARK   78  A    between atoms: _185  and  _186
REMARK   79  A    between atoms: _190  and  _192
REMARK   80  A    between atoms: _192  and  _193
REMARK   81  A    between atoms: _192  and  _195
REMARK   82  A    between atoms: _195  and  _196
REMARK   83  A    between atoms: _201  and  _203
REMARK   84  A    between atoms: _203  and  _204
REMARK   85  A    between atoms: _203  and  _206
REMARK   86  A    between atoms: _206  and  _207
REMARK   87  A    between atoms: _210  and  _212
REMARK   88  A    between atoms: _212  and  _213
REMARK   89  A    between atoms: _212  and  _215
REMARK   90  A    between atoms: _215  and  _216
REMARK   91  A    between atoms: _219  and  _221
REMARK   92  A    between atoms: _221  and  _222
REMARK   93  A    between atoms: _221  and  _224
REMARK   94  A    between atoms: _224  and  _225
REMARK   95  A    between atoms: _228  and  _230
REMARK   96  A    between atoms: _230  and  _231
REMARK   97  A    between atoms: _230  and  _233
REMARK   98  A    between atoms: _235  and  _237
REMARK   99  A    between atoms: _237  and  _238
REMARK  100  A    between atoms: _237  and  _240
REMARK  101  A    between atoms: _240  and  _241
REMARK  102  A    between atoms: _241  and  _242
REMARK  103  A    between atoms: _242  and  _243
REMARK  104  A    between atoms: _252  and  _254
REMARK  105  A    between atoms: _254  and  _255
REMARK  106  A    between atoms: _254  and  _257
REMARK  107  A    between atoms: _257  and  _258
REMARK  108  A    between atoms: _258  and  _259
REMARK  109  A    between atoms: _259  and  _260
REMARK  110  A    between atoms: _260  and  _261
REMARK  111  A    between atoms: _265  and  _267
REMARK  112  A    between atoms: _267  and  _268
REMARK  113  A    between atoms: _267  and  _270
REMARK  114  A    between atoms: _270  and  _271
REMARK  115  A    between atoms: _274  and  _276
REMARK  116  A    between atoms: _276  and  _277
REMARK  117  A    between atoms: _281  and  _282
REMARK  118  A    between atoms: _287  and  _289
REMARK  119  A    between atoms: _289  and  _290
REMARK  120  A    between atoms: _289  and  _292
REMARK  121  A    between atoms: _295  and  _297
REMARK  122  A    between atoms: _297  and  _298
REMARK  123  A    between atoms: _297  and  _300
REMARK  124  A    between atoms: _300  and  _301
REMARK  125  A    between atoms: _306  and  _308
REMARK  126  A    between atoms: _308  and  _309
REMARK  127  A    between atoms: _308  and  _311
REMARK  128  A    between atoms: _311  and  _312
REMARK  129  A    between atoms: _318  and  _320
REMARK  130  A    between atoms: _320  and  _321
REMARK  131  A    between atoms: _320  and  _323
REMARK  132  A    between atoms: _323  and  _324
REMARK  133  A    between atoms: _327  and  _329
REMARK  134  A    between atoms: _329  and  _330
REMARK  135  A    between atoms: _333  and  _335
REMARK  136  A    between atoms: _335  and  _336
REMARK  137  A    between atoms: _335  and  _338
REMARK  138  A    between atoms: _338  and  _339
REMARK  139  A    between atoms: _341  and  _343
REMARK  140  A    between atoms: _343  and  _344
REMARK  141  A    between atoms: _343  and  _346
REMARK                            x       y       z     vdW  Elec       q    Type
REMARK                         _______ _______ _______ _____ _____    ______ ____
ROOT
ATOM      1  O   HOH     1      37.473  -0.578  21.146  0.00  0.00    +0.000 OA
ENDROOT
TORSDOF 0
REMARK  Name = ../refined-set-2016/4g8v/4g8v_pocket.pdb
REMARK  141 active torsions:
REMARK  status: ('A' for Active; 'I' for Inactive)
REMARK    1  A    between atoms: _1  and  _3
REMARK    2  A    between atoms: _3  and  _4
REMARK    3  A    between atoms: _3  and  _6
REMARK    4  A    between atoms: _6  and  _7
REMARK    5  A    between atoms: _7  and  _8
REMARK    6  A    between atoms: _11  and  _13
REMARK    7  A    between atoms: _13  and  _14
REMARK    8  A    between atoms: _17  and  _19
REMARK    9  A    between atoms: _19  and  _20
REMARK   10  A    between atoms: _19  and  _22
REMARK   11  A    between atoms: _22  and  _23
REMARK   12  A    between atoms: _23  and  _24
REMARK   13  A    between atoms: _24  and  _25
REMARK   14  A    between atoms: _25  and  _26
REMARK   15  A    between atoms: _30  and  _32
REMARK   16  A    between atoms: _32  and  _33
REMARK   17  A    between atoms: _32  and  _35
REMARK   18  A    between atoms: _35  and  _36
REMARK   19  A    between atoms: _42  and  _44
REMARK   20  A    between atoms: _44  and  _45
REMARK   21  A    between atoms: _44  and  _47
REMARK   22  A    between atoms: _47  and  _48
REMARK   23  A    between atoms: _48  and  _49
REMARK   24  A    between atoms: _49  and  _50
REMARK   25  A    between atoms: _59  and  _61
REMARK   26  A    between atoms: _61  and  _62
REMARK   27  A    between atoms: _61  and  _64
REMARK   28  A    between atoms: _64  and  _65
REMARK   29  A    between atoms: _65  and  _66
REMARK   30  A    between atoms: _71  and  _73
REMARK   31  A    between atoms: _73  and  _74
REMARK   32  A    between atoms: _73  and  _76
REMARK   33  A    between atoms: _76  and  _77
REMARK   34  A    between atoms: _82  and  _84
REMARK   35  A    between atoms: _84  and  _85
REMARK   36  A    between atoms: _84  and  _87
REMARK   37  A    between atoms: _87  and  _88
REMARK   38  A    between atoms: _88  and  _89
REMARK   39  A    between atoms: _91  and  _93
REMARK   40  A    between atoms: _93  and  _94
REMARK   41  A    between atoms: _93  and  _96
REMARK   42  A    between atoms: _96  and  _97
REMARK   43  A    between atoms: _100  and  _102
REMARK   44  A    between atoms: _102  and  _103
REMARK   45  A    between atoms: _102  and  _105
REMARK   46  A    between atoms: _105  and  _106
REMARK   47  A    between atoms: _106  and  _107
REMARK   48  A    between atoms: _107  and  _108
REMARK   49  A    between atoms: _117  and  _119
REMARK   50  A    between atoms: _119  and  _120
REMARK   51  A    between atoms: _119  and  _122
REMARK   52  A    between atoms: _122  and  _123
REMARK   53  A    between atoms: _123  and  _124
REMARK   54  A    between atoms: _124  and  _125
REMARK   55  A    between atoms: _125  and  _126
REMARK   56  A    between atoms: _131  and  _132
REMARK   57  A    between atoms: _137  and  _139
REMARK   58  A    between atoms: _139  and  _140
REMARK   59  A    between atoms: _139  and  _142
REMARK   60  A    between atoms: _145  and  _147
REMARK   61  A    between atoms: _147  and  _148
REMARK   62  A    between atoms: _147  and  _150
REMARK   63  A    between atoms: _150  and  _151
REMARK   64  A    between atoms: _156  and  _158
REMARK   65  A    between atoms: _158  and  _159
REMARK   66  A    between atoms: _158  and  _161
REMARK   67  A    between atoms: _161  and  _162
REMARK   68  A    between atoms: _165  and  _167
REMARK   69  A    between atoms: _167  and  _168
REMARK   70  A    between atoms: _167  and  _170
REMARK   71  A    between atoms: _170  and  _171
REMARK   72  A    between atoms: _177  and  _179
REMARK   73  A    between atoms: _179  and  _180
REMARK   74  A    between atoms: _179  and  _182
REMARK   75  A    between atoms: _182  and  _183
REMARK   76  A    between atoms: _183  and  _184
REMARK   77  A    between atoms: _184  and  _185
REMARK   78  A    between atoms: _185  and  _186
REMARK   79  A    between atoms: _190  and  _192
REMARK   80  A    between atoms: _192  and  _193
REMARK   81  A    between atoms: _192  and  _195
REMARK   82  A    between atoms: _195  and  _196
REMARK   83  A    between atoms: _201  and  _203
REMARK   84  A    between atoms: _203  and  _204
REMARK   85  A    between atoms: _203  and  _206
REMARK   86  A    between atoms: _206  and  _207
REMARK   87  A    between atoms: _210  and  _212
REMARK   88  A    between atoms: _212  and  _213
REMARK   89  A    between atoms: _212  and  _215
REMARK   90  A    between atoms: _215  and  _216
REMARK   91  A    between atoms: _219  and  _221
REMARK   92  A    between atoms: _221  and  _222
REMARK   93  A    between atoms: _221  and  _224
REMARK   94  A    between atoms: _224  and  _225
REMARK   95  A    between atoms: _228  and  _230
REMARK   96  A    between atoms: _230  and  _231
REMARK   97  A    between atoms: _230  and  _233
REMARK   98  A    between atoms: _235  and  _237
REMARK   99  A    between atoms: _237  and  _238
REMARK  100  A    between atoms: _237  and  _240
REMARK  101  A    between atoms: _240  and  _241
REMARK  102  A    between atoms: _241  and  _242
REMARK  103  A    between atoms: _242  and  _243
REMARK  104  A    between atoms: _252  and  _254
REMARK  105  A    between atoms: _254  and  _255
REMARK  106  A    between atoms: _254  and  _257
REMARK  107  A    between atoms: _257  and  _258
REMARK  108  A    between atoms: _258  and  _259
REMARK  109  A    between atoms: _259  and  _260
REMARK  110  A    between atoms: _260  and  _261
REMARK  111  A    between atoms: _265  and  _267
REMARK  112  A    between atoms: _267  and  _268
REMARK  113  A    between atoms: _267  and  _270
REMARK  114  A    between atoms: _270  and  _271
REMARK  115  A    between atoms: _274  and  _276
REMARK  116  A    between atoms: _276  and  _277
REMARK  117  A    between atoms: _281  and  _282
REMARK  118  A    between atoms: _287  and  _289
REMARK  119  A    between atoms: _289  and  _290
REMARK  120  A    between atoms: _289  and  _292
REMARK  121  A    between atoms: _295  and  _297
REMARK  122  A    between atoms: _297  and  _298
REMARK  123  A    between atoms: _297  and  _300
REMARK  124  A    between atoms: _300  and  _301
REMARK  125  A    between atoms: _306  and  _308
REMARK  126  A    between atoms: _308  and  _309
REMARK  127  A    between atoms: _308  and  _311
REMARK  128  A    between atoms: _311  and  _312
REMARK  129  A    between atoms: _318  and  _320
REMARK  130  A    between atoms: _320  and  _321
REMARK  131  A    between atoms: _320  and  _323
REMARK  132  A    between atoms: _323  and  _324
REMARK  133  A    between atoms: _327  and  _329
REMARK  134  A    between atoms: _329  and  _330
REMARK  135  A    between atoms: _333  and  _335
REMARK  136  A    between atoms: _335  and  _336
REMARK  137  A    between atoms: _335  and  _338
REMARK  138  A    between atoms: _338  and  _339
REMARK  139  A    between atoms: _341  and  _343
REMARK  140  A    between atoms: _343  and  _344
REMARK  141  A    between atoms: _343  and  _346
REMARK                            x       y       z     vdW  Elec       q    Type
REMARK                         _______ _______ _______ _____ _____    ______ ____
ROOT
ATOM      1  O   HOH     1      34.016   8.627  14.049  0.00  0.00    +0.000 OA
ENDROOT
TORSDOF 0
REMARK  Name = ../refined-set-2016/4g8v/4g8v_pocket.pdb
REMARK  141 active torsions:
REMARK  status: ('A' for Active; 'I' for Inactive)
REMARK    1  A    between atoms: _1  and  _3
REMARK    2  A    between atoms: _3  and  _4
REMARK    3  A    between atoms: _3  and  _6
REMARK    4  A    between atoms: _6  and  _7
REMARK    5  A    between atoms: _7  and  _8
REMARK    6  A    between atoms: _11  and  _13
REMARK    7  A    between atoms: _13  and  _14
REMARK    8  A    between atoms: _17  and  _19
REMARK    9  A    between atoms: _19  and  _20
REMARK   10  A    between atoms: _19  and  _22
REMARK   11  A    between atoms: _22  and  _23
REMARK   12  A    between atoms: _23  and  _24
REMARK   13  A    between atoms: _24  and  _25
REMARK   14  A    between atoms: _25  and  _26
REMARK   15  A    between atoms: _30  and  _32
REMARK   16  A    between atoms: _32  and  _33
REMARK   17  A    between atoms: _32  and  _35
REMARK   18  A    between atoms: _35  and  _36
REMARK   19  A    between atoms: _42  and  _44
REMARK   20  A    between atoms: _44  and  _45
REMARK   21  A    between atoms: _44  and  _47
REMARK   22  A    between atoms: _47  and  _48
REMARK   23  A    between atoms: _48  and  _49
REMARK   24  A    between atoms: _49  and  _50
REMARK   25  A    between atoms: _59  and  _61
REMARK   26  A    between atoms: _61  and  _62
REMARK   27  A    between atoms: _61  and  _64
REMARK   28  A    between atoms: _64  and  _65
REMARK   29  A    between atoms: _65  and  _66
REMARK   30  A    between atoms: _71  and  _73
REMARK   31  A    between atoms: _73  and  _74
REMARK   32  A    between atoms: _73  and  _76
REMARK   33  A    between atoms: _76  and  _77
REMARK   34  A    between atoms: _82  and  _84
REMARK   35  A    between atoms: _84  and  _85
REMARK   36  A    between atoms: _84  and  _87
REMARK   37  A    between atoms: _87  and  _88
REMARK   38  A    between atoms: _88  and  _89
REMARK   39  A    between atoms: _91  and  _93
REMARK   40  A    between atoms: _93  and  _94
REMARK   41  A    between atoms: _93  and  _96
REMARK   42  A    between atoms: _96  and  _97
REMARK   43  A    between atoms: _100  and  _102
REMARK   44  A    between atoms: _102  and  _103
REMARK   45  A    between atoms: _102  and  _105
REMARK   46  A    between atoms: _105  and  _106
REMARK   47  A    between atoms: _106  and  _107
REMARK   48  A    between atoms: _107  and  _108
REMARK   49  A    between atoms: _117  and  _119
REMARK   50  A    between atoms: _119  and  _120
REMARK   51  A    between atoms: _119  and  _122
REMARK   52  A    between atoms: _122  and  _123
REMARK   53  A    between atoms: _123  and  _124
REMARK   54  A    between atoms: _124  and  _125
REMARK   55  A    between atoms: _125  and  _126
REMARK   56  A    between atoms: _131  and  _132
REMARK   57  A    between atoms: _137  and  _139
REMARK   58  A    between atoms: _139  and  _140
REMARK   59  A    between atoms: _139  and  _142
REMARK   60  A    between atoms: _145  and  _147
REMARK   61  A    between atoms: _147  and  _148
REMARK   62  A    between atoms: _147  and  _150
REMARK   63  A    between atoms: _150  and  _151
REMARK   64  A    between atoms: _156  and  _158
REMARK   65  A    between atoms: _158  and  _159
REMARK   66  A    between atoms: _158  and  _161
REMARK   67  A    between atoms: _161  and  _162
REMARK   68  A    between atoms: _165  and  _167
REMARK   69  A    between atoms: _167  and  _168
REMARK   70  A    between atoms: _167  and  _170
REMARK   71  A    between atoms: _170  and  _171
REMARK   72  A    between atoms: _177  and  _179
REMARK   73  A    between atoms: _179  and  _180
REMARK   74  A    between atoms: _179  and  _182
REMARK   75  A    between atoms: _182  and  _183
REMARK   76  A    between atoms: _183  and  _184
REMARK   77  A    between atoms: _184  and  _185
REMARK   78  A    between atoms: _185  and  _186
REMARK   79  A    between atoms: _190  and  _192
REMARK   80  A    between atoms: _192  and  _193
REMARK   81  A    between atoms: _192  and  _195
REMARK   82  A    between atoms: _195  and  _196
REMARK   83  A    between atoms: _201  and  _203
REMARK   84  A    between atoms: _203  and  _204
REMARK   85  A    between atoms: _203  and  _206
REMARK   86  A    between atoms: _206  and  _207
REMARK   87  A    between atoms: _210  and  _212
REMARK   88  A    between atoms: _212  and  _213
REMARK   89  A    between atoms: _212  and  _215
REMARK   90  A    between atoms: _215  and  _216
REMARK   91  A    between atoms: _219  and  _221
REMARK   92  A    between atoms: _221  and  _222
REMARK   93  A    between atoms: _221  and  _224
REMARK   94  A    between atoms: _224  and  _225
REMARK   95  A    between atoms: _228  and  _230
REMARK   96  A    between atoms: _230  and  _231
REMARK   97  A    between atoms: _230  and  _233
REMARK   98  A    between atoms: _235  and  _237
REMARK   99  A    between atoms: _237  and  _238
REMARK  100  A    between atoms: _237  and  _240
REMARK  101  A    between atoms: _240  and  _241
REMARK  102  A    between atoms: _241  and  _242
REMARK  103  A    between atoms: _242  and  _243
REMARK  104  A    between atoms: _252  and  _254
REMARK  105  A    between atoms: _254  and  _255
REMARK  106  A    between atoms: _254  and  _257
REMARK  107  A    between atoms: _257  and  _258
REMARK  108  A    between atoms: _258  and  _259
REMARK  109  A    between atoms: _259  and  _260
REMARK  110  A    between atoms: _260  and  _261
REMARK  111  A    between atoms: _265  and  _267
REMARK  112  A    between atoms: _267  and  _268
REMARK  113  A    between atoms: _267  and  _270
REMARK  114  A    between atoms: _270  and  _271
REMARK  115  A    between atoms: _274  and  _276
REMARK  116  A    between atoms: _276  and  _277
REMARK  117  A    between atoms: _281  and  _282
REMARK  118  A    between atoms: _287  and  _289
REMARK  119  A    between atoms: _289  and  _290
REMARK  120  A    between atoms: _289  and  _292
REMARK  121  A    between atoms: _295  and  _297
REMARK  122  A    between atoms: _297  and  _298
REMARK  123  A    between atoms: _297  and  _300
REMARK  124  A    between atoms: _300  and  _301
REMARK  125  A    between atoms: _306  and  _308
REMARK  126  A    between atoms: _308  and  _309
REMARK  127  A    between atoms: _308  and  _311
REMARK  128  A    between atoms: _311  and  _312
REMARK  129  A    between atoms: _318  and  _320
REMARK  130  A    between atoms: _320  and  _321
REMARK  131  A    between atoms: _320  and  _323
REMARK  132  A    between atoms: _323  and  _324
REMARK  133  A    between atoms: _327  and  _329
REMARK  134  A    between atoms: _329  and  _330
REMARK  135  A    between atoms: _333  and  _335
REMARK  136  A    between atoms: _335  and  _336
REMARK  137  A    between atoms: _335  and  _338
REMARK  138  A    between atoms: _338  and  _339
REMARK  139  A    between atoms: _341  and  _343
REMARK  140  A    between atoms: _343  and  _344
REMARK  141  A    between atoms: _343  and  _346
REMARK                            x       y       z     vdW  Elec       q    Type
REMARK                         _______ _______ _______ _____ _____    ______ ____
ROOT
ATOM      1  O   HOH     1      41.112  -1.171   9.889  0.00  0.00    +0.000 OA
ENDROOT
TORSDOF 0
REMARK  Name = ../refined-set-2016/4g8v/4g8v_pocket.pdb
REMARK  141 active torsions:
REMARK  status: ('A' for Active; 'I' for Inactive)
REMARK    1  A    between atoms: _1  and  _3
REMARK    2  A    between atoms: _3  and  _4
REMARK    3  A    between atoms: _3  and  _6
REMARK    4  A    between atoms: _6  and  _7
REMARK    5  A    between atoms: _7  and  _8
REMARK    6  A    between atoms: _11  and  _13
REMARK    7  A    between atoms: _13  and  _14
REMARK    8  A    between atoms: _17  and  _19
REMARK    9  A    between atoms: _19  and  _20
REMARK   10  A    between atoms: _19  and  _22
REMARK   11  A    between atoms: _22  and  _23
REMARK   12  A    between atoms: _23  and  _24
REMARK   13  A    between atoms: _24  and  _25
REMARK   14  A    between atoms: _25  and  _26
REMARK   15  A    between atoms: _30  and  _32
REMARK   16  A    between atoms: _32  and  _33
REMARK   17  A    between atoms: _32  and  _35
REMARK   18  A    between atoms: _35  and  _36
REMARK   19  A    between atoms: _42  and  _44
REMARK   20  A    between atoms: _44  and  _45
REMARK   21  A    between atoms: _44  and  _47
REMARK   22  A    between atoms: _47  and  _48
REMARK   23  A    between atoms: _48  and  _49
REMARK   24  A    between atoms: _49  and  _50
REMARK   25  A    between atoms: _59  and  _61
REMARK   26  A    between atoms: _61  and  _62
REMARK   27  A    between atoms: _61  and  _64
REMARK   28  A    between atoms: _64  and  _65
REMARK   29  A    between atoms: _65  and  _66
REMARK   30  A    between atoms: _71  and  _73
REMARK   31  A    between atoms: _73  and  _74
REMARK   32  A    between atoms: _73  and  _76
REMARK   33  A    between atoms: _76  and  _77
REMARK   34  A    between atoms: _82  and  _84
REMARK   35  A    between atoms: _84  and  _85
REMARK   36  A    between atoms: _84  and  _87
REMARK   37  A    between atoms: _87  and  _88
REMARK   38  A    between atoms: _88  and  _89
REMARK   39  A    between atoms: _91  and  _93
REMARK   40  A    between atoms: _93  and  _94
REMARK   41  A    between atoms: _93  and  _96
REMARK   42  A    between atoms: _96  and  _97
REMARK   43  A    between atoms: _100  and  _102
REMARK   44  A    between atoms: _102  and  _103
REMARK   45  A    between atoms: _102  and  _105
REMARK   46  A    between atoms: _105  and  _106
REMARK   47  A    between atoms: _106  and  _107
REMARK   48  A    between atoms: _107  and  _108
REMARK   49  A    between atoms: _117  and  _119
REMARK   50  A    between atoms: _119  and  _120
REMARK   51  A    between atoms: _119  and  _122
REMARK   52  A    between atoms: _122  and  _123
REMARK   53  A    between atoms: _123  and  _124
REMARK   54  A    between atoms: _124  and  _125
REMARK   55  A    between atoms: _125  and  _126
REMARK   56  A    between atoms: _131  and  _132
REMARK   57  A    between atoms: _137  and  _139
REMARK   58  A    between atoms: _139  and  _140
REMARK   59  A    between atoms: _139  and  _142
REMARK   60  A    between atoms: _145  and  _147
REMARK   61  A    between atoms: _147  and  _148
REMARK   62  A    between atoms: _147  and  _150
REMARK   63  A    between atoms: _150  and  _151
REMARK   64  A    between atoms: _156  and  _158
REMARK   65  A    between atoms: _158  and  _159
REMARK   66  A    between atoms: _158  and  _161
REMARK   67  A    between atoms: _161  and  _162
REMARK   68  A    between atoms: _165  and  _167
REMARK   69  A    between atoms: _167  and  _168
REMARK   70  A    between atoms: _167  and  _170
REMARK   71  A    between atoms: _170  and  _171
REMARK   72  A    between atoms: _177  and  _179
REMARK   73  A    between atoms: _179  and  _180
REMARK   74  A    between atoms: _179  and  _182
REMARK   75  A    between atoms: _182  and  _183
REMARK   76  A    between atoms: _183  and  _184
REMARK   77  A    between atoms: _184  and  _185
REMARK   78  A    between atoms: _185  and  _186
REMARK   79  A    between atoms: _190  and  _192
REMARK   80  A    between atoms: _192  and  _193
REMARK   81  A    between atoms: _192  and  _195
REMARK   82  A    between atoms: _195  and  _196
REMARK   83  A    between atoms: _201  and  _203
REMARK   84  A    between atoms: _203  and  _204
REMARK   85  A    between atoms: _203  and  _206
REMARK   86  A    between atoms: _206  and  _207
REMARK   87  A    between atoms: _210  and  _212
REMARK   88  A    between atoms: _212  and  _213
REMARK   89  A    between atoms: _212  and  _215
REMARK   90  A    between atoms: _215  and  _216
REMARK   91  A    between atoms: _219  and  _221
REMARK   92  A    between atoms: _221  and  _222
REMARK   93  A    between atoms: _221  and  _224
REMARK   94  A    between atoms: _224  and  _225
REMARK   95  A    between atoms: _228  and  _230
REMARK   96  A    between atoms: _230  and  _231
REMARK   97  A    between atoms: _230  and  _233
REMARK   98  A    between atoms: _235  and  _237
REMARK   99  A    between atoms: _237  and  _238
REMARK  100  A    between atoms: _237  and  _240
REMARK  101  A    between atoms: _240  and  _241
REMARK  102  A    between atoms: _241  and  _242
REMARK  103  A    between atoms: _242  and  _243
REMARK  104  A    between atoms: _252  and  _254
REMARK  105  A    between atoms: _254  and  _255
REMARK  106  A    between atoms: _254  and  _257
REMARK  107  A    between atoms: _257  and  _258
REMARK  108  A    between atoms: _258  and  _259
REMARK  109  A    between atoms: _259  and  _260
REMARK  110  A    between atoms: _260  and  _261
REMARK  111  A    between atoms: _265  and  _267
REMARK  112  A    between atoms: _267  and  _268
REMARK  113  A    between atoms: _267  and  _270
REMARK  114  A    between atoms: _270  and  _271
REMARK  115  A    between atoms: _274  and  _276
REMARK  116  A    between atoms: _276  and  _277
REMARK  117  A    between atoms: _281  and  _282
REMARK  118  A    between atoms: _287  and  _289
REMARK  119  A    between atoms: _289  and  _290
REMARK  120  A    between atoms: _289  and  _292
REMARK  121  A    between atoms: _295  and  _297
REMARK  122  A    between atoms: _297  and  _298
REMARK  123  A    between atoms: _297  and  _300
REMARK  124  A    between atoms: _300  and  _301
REMARK  125  A    between atoms: _306  and  _308
REMARK  126  A    between atoms: _308  and  _309
REMARK  127  A    between atoms: _308  and  _311
REMARK  128  A    between atoms: _311  and  _312
REMARK  129  A    between atoms: _318  and  _320
REMARK  130  A    between atoms: _320  and  _321
REMARK  131  A    between atoms: _320  and  _323
REMARK  132  A    between atoms: _323  and  _324
REMARK  133  A    between atoms: _327  and  _329
REMARK  134  A    between atoms: _329  and  _330
REMARK  135  A    between atoms: _333  and  _335
REMARK  136  A    between atoms: _335  and  _336
REMARK  137  A    between atoms: _335  and  _338
REMARK  138  A    between atoms: _338  and  _339
REMARK  139  A    between atoms: _341  and  _343
REMARK  140  A    between atoms: _343  and  _344
REMARK  141  A    between atoms: _343  and  _346
REMARK                            x       y       z     vdW  Elec       q    Type
REMARK                         _______ _______ _______ _____ _____    ______ ____
ROOT
ATOM      1  O   HOH     1      34.645   5.941  21.947  0.00  0.00    +0.000 OA
ENDROOT
TORSDOF 0
REMARK  Name = ../refined-set-2016/4g8v/4g8v_pocket.pdb
REMARK  141 active torsions:
REMARK  status: ('A' for Active; 'I' for Inactive)
REMARK    1  A    between atoms: _1  and  _3
REMARK    2  A    between atoms: _3  and  _4
REMARK    3  A    between atoms: _3  and  _6
REMARK    4  A    between atoms: _6  and  _7
REMARK    5  A    between atoms: _7  and  _8
REMARK    6  A    between atoms: _11  and  _13
REMARK    7  A    between atoms: _13  and  _14
REMARK    8  A    between atoms: _17  and  _19
REMARK    9  A    between atoms: _19  and  _20
REMARK   10  A    between atoms: _19  and  _22
REMARK   11  A    between atoms: _22  and  _23
REMARK   12  A    between atoms: _23  and  _24
REMARK   13  A    between atoms: _24  and  _25
REMARK   14  A    between atoms: _25  and  _26
REMARK   15  A    between atoms: _30  and  _32
REMARK   16  A    between atoms: _32  and  _33
REMARK   17  A    between atoms: _32  and  _35
REMARK   18  A    between atoms: _35  and  _36
REMARK   19  A    between atoms: _42  and  _44
REMARK   20  A    between atoms: _44  and  _45
REMARK   21  A    between atoms: _44  and  _47
REMARK   22  A    between atoms: _47  and  _48
REMARK   23  A    between atoms: _48  and  _49
REMARK   24  A    between atoms: _49  and  _50
REMARK   25  A    between atoms: _59  and  _61
REMARK   26  A    between atoms: _61  and  _62
REMARK   27  A    between atoms: _61  and  _64
REMARK   28  A    between atoms: _64  and  _65
REMARK   29  A    between atoms: _65  and  _66
REMARK   30  A    between atoms: _71  and  _73
REMARK   31  A    between atoms: _73  and  _74
REMARK   32  A    between atoms: _73  and  _76
REMARK   33  A    between atoms: _76  and  _77
REMARK   34  A    between atoms: _82  and  _84
REMARK   35  A    between atoms: _84  and  _85
REMARK   36  A    between atoms: _84  and  _87
REMARK   37  A    between atoms: _87  and  _88
REMARK   38  A    between atoms: _88  and  _89
REMARK   39  A    between atoms: _91  and  _93
REMARK   40  A    between atoms: _93  and  _94
REMARK   41  A    between atoms: _93  and  _96
REMARK   42  A    between atoms: _96  and  _97
REMARK   43  A    between atoms: _100  and  _102
REMARK   44  A    between atoms: _102  and  _103
REMARK   45  A    between atoms: _102  and  _105
REMARK   46  A    between atoms: _105  and  _106
REMARK   47  A    between atoms: _106  and  _107
REMARK   48  A    between atoms: _107  and  _108
REMARK   49  A    between atoms: _117  and  _119
REMARK   50  A    between atoms: _119  and  _120
REMARK   51  A    between atoms: _119  and  _122
REMARK   52  A    between atoms: _122  and  _123
REMARK   53  A    between atoms: _123  and  _124
REMARK   54  A    between atoms: _124  and  _125
REMARK   55  A    between atoms: _125  and  _126
REMARK   56  A    between atoms: _131  and  _132
REMARK   57  A    between atoms: _137  and  _139
REMARK   58  A    between atoms: _139  and  _140
REMARK   59  A    between atoms: _139  and  _142
REMARK   60  A    between atoms: _145  and  _147
REMARK   61  A    between atoms: _147  and  _148
REMARK   62  A    between atoms: _147  and  _150
REMARK   63  A    between atoms: _150  and  _151
REMARK   64  A    between atoms: _156  and  _158
REMARK   65  A    between atoms: _158  and  _159
REMARK   66  A    between atoms: _158  and  _161
REMARK   67  A    between atoms: _161  and  _162
REMARK   68  A    between atoms: _165  and  _167
REMARK   69  A    between atoms: _167  and  _168
REMARK   70  A    between atoms: _167  and  _170
REMARK   71  A    between atoms: _170  and  _171
REMARK   72  A    between atoms: _177  and  _179
REMARK   73  A    between atoms: _179  and  _180
REMARK   74  A    between atoms: _179  and  _182
REMARK   75  A    between atoms: _182  and  _183
REMARK   76  A    between atoms: _183  and  _184
REMARK   77  A    between atoms: _184  and  _185
REMARK   78  A    between atoms: _185  and  _186
REMARK   79  A    between atoms: _190  and  _192
REMARK   80  A    between atoms: _192  and  _193
REMARK   81  A    between atoms: _192  and  _195
REMARK   82  A    between atoms: _195  and  _196
REMARK   83  A    between atoms: _201  and  _203
REMARK   84  A    between atoms: _203  and  _204
REMARK   85  A    between atoms: _203  and  _206
REMARK   86  A    between atoms: _206  and  _207
REMARK   87  A    between atoms: _210  and  _212
REMARK   88  A    between atoms: _212  and  _213
REMARK   89  A    between atoms: _212  and  _215
REMARK   90  A    between atoms: _215  and  _216
REMARK   91  A    between atoms: _219  and  _221
REMARK   92  A    between atoms: _221  and  _222
REMARK   93  A    between atoms: _221  and  _224
REMARK   94  A    between atoms: _224  and  _225
REMARK   95  A    between atoms: _228  and  _230
REMARK   96  A    between atoms: _230  and  _231
REMARK   97  A    between atoms: _230  and  _233
REMARK   98  A    between atoms: _235  and  _237
REMARK   99  A    between atoms: _237  and  _238
REMARK  100  A    between atoms: _237  and  _240
REMARK  101  A    between atoms: _240  and  _241
REMARK  102  A    between atoms: _241  and  _242
REMARK  103  A    between atoms: _242  and  _243
REMARK  104  A    between atoms: _252  and  _254
REMARK  105  A    between atoms: _254  and  _255
REMARK  106  A    between atoms: _254  and  _257
REMARK  107  A    between atoms: _257  and  _258
REMARK  108  A    between atoms: _258  and  _259
REMARK  109  A    between atoms: _259  and  _260
REMARK  110  A    between atoms: _260  and  _261
REMARK  111  A    between atoms: _265  and  _267
REMARK  112  A    between atoms: _267  and  _268
REMARK  113  A    between atoms: _267  and  _270
REMARK  114  A    between atoms: _270  and  _271
REMARK  115  A    between atoms: _274  and  _276
REMARK  116  A    between atoms: _276  and  _277
REMARK  117  A    between atoms: _281  and  _282
REMARK  118  A    between atoms: _287  and  _289
REMARK  119  A    between atoms: _289  and  _290
REMARK  120  A    between atoms: _289  and  _292
REMARK  121  A    between atoms: _295  and  _297
REMARK  122  A    between atoms: _297  and  _298
REMARK  123  A    between atoms: _297  and  _300
REMARK  124  A    between atoms: _300  and  _301
REMARK  125  A    between atoms: _306  and  _308
REMARK  126  A    between atoms: _308  and  _309
REMARK  127  A    between atoms: _308  and  _311
REMARK  128  A    between atoms: _311  and  _312
REMARK  129  A    between atoms: _318  and  _320
REMARK  130  A    between atoms: _320  and  _321
REMARK  131  A    between atoms: _320  and  _323
REMARK  132  A    between atoms: _323  and  _324
REMARK  133  A    between atoms: _327  and  _329
REMARK  134  A    between atoms: _329  and  _330
REMARK  135  A    between atoms: _333  and  _335
REMARK  136  A    between atoms: _335  and  _336
REMARK  137  A    between atoms: _335  and  _338
REMARK  138  A    between atoms: _338  and  _339
REMARK  139  A    between atoms: _341  and  _343
REMARK  140  A    between atoms: _343  and  _344
REMARK  141  A    between atoms: _343  and  _346
REMARK                            x       y       z     vdW  Elec       q    Type
REMARK                         _______ _______ _______ _____ _____    ______ ____
ROOT
ATOM      1  O   HOH     1      35.685   3.498  23.055  0.00  0.00    +0.000 OA
ENDROOT
TORSDOF 0
REMARK  Name = ../refined-set-2016/4g8v/4g8v_pocket.pdb
REMARK  141 active torsions:
REMARK  status: ('A' for Active; 'I' for Inactive)
REMARK    1  A    between atoms: _1  and  _3
REMARK    2  A    between atoms: _3  and  _4
REMARK    3  A    between atoms: _3  and  _6
REMARK    4  A    between atoms: _6  and  _7
REMARK    5  A    between atoms: _7  and  _8
REMARK    6  A    between atoms: _11  and  _13
REMARK    7  A    between atoms: _13  and  _14
REMARK    8  A    between atoms: _17  and  _19
REMARK    9  A    between atoms: _19  and  _20
REMARK   10  A    between atoms: _19  and  _22
REMARK   11  A    between atoms: _22  and  _23
REMARK   12  A    between atoms: _23  and  _24
REMARK   13  A    between atoms: _24  and  _25
REMARK   14  A    between atoms: _25  and  _26
REMARK   15  A    between atoms: _30  and  _32
REMARK   16  A    between atoms: _32  and  _33
REMARK   17  A    between atoms: _32  and  _35
REMARK   18  A    between atoms: _35  and  _36
REMARK   19  A    between atoms: _42  and  _44
REMARK   20  A    between atoms: _44  and  _45
REMARK   21  A    between atoms: _44  and  _47
REMARK   22  A    between atoms: _47  and  _48
REMARK   23  A    between atoms: _48  and  _49
REMARK   24  A    between atoms: _49  and  _50
REMARK   25  A    between atoms: _59  and  _61
REMARK   26  A    between atoms: _61  and  _62
REMARK   27  A    between atoms: _61  and  _64
REMARK   28  A    between atoms: _64  and  _65
REMARK   29  A    between atoms: _65  and  _66
REMARK   30  A    between atoms: _71  and  _73
REMARK   31  A    between atoms: _73  and  _74
REMARK   32  A    between atoms: _73  and  _76
REMARK   33  A    between atoms: _76  and  _77
REMARK   34  A    between atoms: _82  and  _84
REMARK   35  A    between atoms: _84  and  _85
REMARK   36  A    between atoms: _84  and  _87
REMARK   37  A    between atoms: _87  and  _88
REMARK   38  A    between atoms: _88  and  _89
REMARK   39  A    between atoms: _91  and  _93
REMARK   40  A    between atoms: _93  and  _94
REMARK   41  A    between atoms: _93  and  _96
REMARK   42  A    between atoms: _96  and  _97
REMARK   43  A    between atoms: _100  and  _102
REMARK   44  A    between atoms: _102  and  _103
REMARK   45  A    between atoms: _102  and  _105
REMARK   46  A    between atoms: _105  and  _106
REMARK   47  A    between atoms: _106  and  _107
REMARK   48  A    between atoms: _107  and  _108
REMARK   49  A    between atoms: _117  and  _119
REMARK   50  A    between atoms: _119  and  _120
REMARK   51  A    between atoms: _119  and  _122
REMARK   52  A    between atoms: _122  and  _123
REMARK   53  A    between atoms: _123  and  _124
REMARK   54  A    between atoms: _124  and  _125
REMARK   55  A    between atoms: _125  and  _126
REMARK   56  A    between atoms: _131  and  _132
REMARK   57  A    between atoms: _137  and  _139
REMARK   58  A    between atoms: _139  and  _140
REMARK   59  A    between atoms: _139  and  _142
REMARK   60  A    between atoms: _145  and  _147
REMARK   61  A    between atoms: _147  and  _148
REMARK   62  A    between atoms: _147  and  _150
REMARK   63  A    between atoms: _150  and  _151
REMARK   64  A    between atoms: _156  and  _158
REMARK   65  A    between atoms: _158  and  _159
REMARK   66  A    between atoms: _158  and  _161
REMARK   67  A    between atoms: _161  and  _162
REMARK   68  A    between atoms: _165  and  _167
REMARK   69  A    between atoms: _167  and  _168
REMARK   70  A    between atoms: _167  and  _170
REMARK   71  A    between atoms: _170  and  _171
REMARK   72  A    between atoms: _177  and  _179
REMARK   73  A    between atoms: _179  and  _180
REMARK   74  A    between atoms: _179  and  _182
REMARK   75  A    between atoms: _182  and  _183
REMARK   76  A    between atoms: _183  and  _184
REMARK   77  A    between atoms: _184  and  _185
REMARK   78  A    between atoms: _185  and  _186
REMARK   79  A    between atoms: _190  and  _192
REMARK   80  A    between atoms: _192  and  _193
REMARK   81  A    between atoms: _192  and  _195
REMARK   82  A    between atoms: _195  and  _196
REMARK   83  A    between atoms: _201  and  _203
REMARK   84  A    between atoms: _203  and  _204
REMARK   85  A    between atoms: _203  and  _206
REMARK   86  A    between atoms: _206  and  _207
REMARK   87  A    between atoms: _210  and  _212
REMARK   88  A    between atoms: _212  and  _213
REMARK   89  A    between atoms: _212  and  _215
REMARK   90  A    between atoms: _215  and  _216
REMARK   91  A    between atoms: _219  and  _221
REMARK   92  A    between atoms: _221  and  _222
REMARK   93  A    between atoms: _221  and  _224
REMARK   94  A    between atoms: _224  and  _225
REMARK   95  A    between atoms: _228  and  _230
REMARK   96  A    between atoms: _230  and  _231
REMARK   97  A    between atoms: _230  and  _233
REMARK   98  A    between atoms: _235  and  _237
REMARK   99  A    between atoms: _237  and  _238
REMARK  100  A    between atoms: _237  and  _240
REMARK  101  A    between atoms: _240  and  _241
REMARK  102  A    between atoms: _241  and  _242
REMARK  103  A    between atoms: _242  and  _243
REMARK  104  A    between atoms: _252  and  _254
REMARK  105  A    between atoms: _254  and  _255
REMARK  106  A    between atoms: _254  and  _257
REMARK  107  A    between atoms: _257  and  _258
REMARK  108  A    between atoms: _258  and  _259
REMARK  109  A    between atoms: _259  and  _260
REMARK  110  A    between atoms: _260  and  _261
REMARK  111  A    between atoms: _265  and  _267
REMARK  112  A    between atoms: _267  and  _268
REMARK  113  A    between atoms: _267  and  _270
REMARK  114  A    between atoms: _270  and  _271
REMARK  115  A    between atoms: _274  and  _276
REMARK  116  A    between atoms: _276  and  _277
REMARK  117  A    between atoms: _281  and  _282
REMARK  118  A    between atoms: _287  and  _289
REMARK  119  A    between atoms: _289  and  _290
REMARK  120  A    between atoms: _289  and  _292
REMARK  121  A    between atoms: _295  and  _297
REMARK  122  A    between atoms: _297  and  _298
REMARK  123  A    between atoms: _297  and  _300
REMARK  124  A    between atoms: _300  and  _301
REMARK  125  A    between atoms: _306  and  _308
REMARK  126  A    between atoms: _308  and  _309
REMARK  127  A    between atoms: _308  and  _311
REMARK  128  A    between atoms: _311  and  _312
REMARK  129  A    between atoms: _318  and  _320
REMARK  130  A    between atoms: _320  and  _321
REMARK  131  A    between atoms: _320  and  _323
REMARK  132  A    between atoms: _323  and  _324
REMARK  133  A    between atoms: _327  and  _329
REMARK  134  A    between atoms: _329  and  _330
REMARK  135  A    between atoms: _333  and  _335
REMARK  136  A    between atoms: _335  and  _336
REMARK  137  A    between atoms: _335  and  _338
REMARK  138  A    between atoms: _338  and  _339
REMARK  139  A    between atoms: _341  and  _343
REMARK  140  A    between atoms: _343  and  _344
REMARK  141  A    between atoms: _343  and  _346
REMARK                            x       y       z     vdW  Elec       q    Type
REMARK                         _______ _______ _______ _____ _____    ______ ____
ROOT
ATOM      1  O   HOH     1      34.008  -7.803  14.437  0.00  0.00    +0.000 OA
ENDROOT
TORSDOF 0
REMARK  Name = ../refined-set-2016/4g8v/4g8v_pocket.pdb
REMARK  141 active torsions:
REMARK  status: ('A' for Active; 'I' for Inactive)
REMARK    1  A    between atoms: _1  and  _3
REMARK    2  A    between atoms: _3  and  _4
REMARK    3  A    between atoms: _3  and  _6
REMARK    4  A    between atoms: _6  and  _7
REMARK    5  A    between atoms: _7  and  _8
REMARK    6  A    between atoms: _11  and  _13
REMARK    7  A    between atoms: _13  and  _14
REMARK    8  A    between atoms: _17  and  _19
REMARK    9  A    between atoms: _19  and  _20
REMARK   10  A    between atoms: _19  and  _22
REMARK   11  A    between atoms: _22  and  _23
REMARK   12  A    between atoms: _23  and  _24
REMARK   13  A    between atoms: _24  and  _25
REMARK   14  A    between atoms: _25  and  _26
REMARK   15  A    between atoms: _30  and  _32
REMARK   16  A    between atoms: _32  and  _33
REMARK   17  A    between atoms: _32  and  _35
REMARK   18  A    between atoms: _35  and  _36
REMARK   19  A    between atoms: _42  and  _44
REMARK   20  A    between atoms: _44  and  _45
REMARK   21  A    between atoms: _44  and  _47
REMARK   22  A    between atoms: _47  and  _48
REMARK   23  A    between atoms: _48  and  _49
REMARK   24  A    between atoms: _49  and  _50
REMARK   25  A    between atoms: _59  and  _61
REMARK   26  A    between atoms: _61  and  _62
REMARK   27  A    between atoms: _61  and  _64
REMARK   28  A    between atoms: _64  and  _65
REMARK   29  A    between atoms: _65  and  _66
REMARK   30  A    between atoms: _71  and  _73
REMARK   31  A    between atoms: _73  and  _74
REMARK   32  A    between atoms: _73  and  _76
REMARK   33  A    between atoms: _76  and  _77
REMARK   34  A    between atoms: _82  and  _84
REMARK   35  A    between atoms: _84  and  _85
REMARK   36  A    between atoms: _84  and  _87
REMARK   37  A    between atoms: _87  and  _88
REMARK   38  A    between atoms: _88  and  _89
REMARK   39  A    between atoms: _91  and  _93
REMARK   40  A    between atoms: _93  and  _94
REMARK   41  A    between atoms: _93  and  _96
REMARK   42  A    between atoms: _96  and  _97
REMARK   43  A    between atoms: _100  and  _102
REMARK   44  A    between atoms: _102  and  _103
REMARK   45  A    between atoms: _102  and  _105
REMARK   46  A    between atoms: _105  and  _106
REMARK   47  A    between atoms: _106  and  _107
REMARK   48  A    between atoms: _107  and  _108
REMARK   49  A    between atoms: _117  and  _119
REMARK   50  A    between atoms: _119  and  _120
REMARK   51  A    between atoms: _119  and  _122
REMARK   52  A    between atoms: _122  and  _123
REMARK   53  A    between atoms: _123  and  _124
REMARK   54  A    between atoms: _124  and  _125
REMARK   55  A    between atoms: _125  and  _126
REMARK   56  A    between atoms: _131  and  _132
REMARK   57  A    between atoms: _137  and  _139
REMARK   58  A    between atoms: _139  and  _140
REMARK   59  A    between atoms: _139  and  _142
REMARK   60  A    between atoms: _145  and  _147
REMARK   61  A    between atoms: _147  and  _148
REMARK   62  A    between atoms: _147  and  _150
REMARK   63  A    between atoms: _150  and  _151
REMARK   64  A    between atoms: _156  and  _158
REMARK   65  A    between atoms: _158  and  _159
REMARK   66  A    between atoms: _158  and  _161
REMARK   67  A    between atoms: _161  and  _162
REMARK   68  A    between atoms: _165  and  _167
REMARK   69  A    between atoms: _167  and  _168
REMARK   70  A    between atoms: _167  and  _170
REMARK   71  A    between atoms: _170  and  _171
REMARK   72  A    between atoms: _177  and  _179
REMARK   73  A    between atoms: _179  and  _180
REMARK   74  A    between atoms: _179  and  _182
REMARK   75  A    between atoms: _182  and  _183
REMARK   76  A    between atoms: _183  and  _184
REMARK   77  A    between atoms: _184  and  _185
REMARK   78  A    between atoms: _185  and  _186
REMARK   79  A    between atoms: _190  and  _192
REMARK   80  A    between atoms: _192  and  _193
REMARK   81  A    between atoms: _192  and  _195
REMARK   82  A    between atoms: _195  and  _196
REMARK   83  A    between atoms: _201  and  _203
REMARK   84  A    between atoms: _203  and  _204
REMARK   85  A    between atoms: _203  and  _206
REMARK   86  A    between atoms: _206  and  _207
REMARK   87  A    between atoms: _210  and  _212
REMARK   88  A    between atoms: _212  and  _213
REMARK   89  A    between atoms: _212  and  _215
REMARK   90  A    between atoms: _215  and  _216
REMARK   91  A    between atoms: _219  and  _221
REMARK   92  A    between atoms: _221  and  _222
REMARK   93  A    between atoms: _221  and  _224
REMARK   94  A    between atoms: _224  and  _225
REMARK   95  A    between atoms: _228  and  _230
REMARK   96  A    between atoms: _230  and  _231
REMARK   97  A    between atoms: _230  and  _233
REMARK   98  A    between atoms: _235  and  _237
REMARK   99  A    between atoms: _237  and  _238
REMARK  100  A    between atoms: _237  and  _240
REMARK  101  A    between atoms: _240  and  _241
REMARK  102  A    between atoms: _241  and  _242
REMARK  103  A    between atoms: _242  and  _243
REMARK  104  A    between atoms: _252  and  _254
REMARK  105  A    between atoms: _254  and  _255
REMARK  106  A    between atoms: _254  and  _257
REMARK  107  A    between atoms: _257  and  _258
REMARK  108  A    between atoms: _258  and  _259
REMARK  109  A    between atoms: _259  and  _260
REMARK  110  A    between atoms: _260  and  _261
REMARK  111  A    between atoms: _265  and  _267
REMARK  112  A    between atoms: _267  and  _268
REMARK  113  A    between atoms: _267  and  _270
REMARK  114  A    between atoms: _270  and  _271
REMARK  115  A    between atoms: _274  and  _276
REMARK  116  A    between atoms: _276  and  _277
REMARK  117  A    between atoms: _281  and  _282
REMARK  118  A    between atoms: _287  and  _289
REMARK  119  A    between atoms: _289  and  _290
REMARK  120  A    between atoms: _289  and  _292
REMARK  121  A    between atoms: _295  and  _297
REMARK  122  A    between atoms: _297  and  _298
REMARK  123  A    between atoms: _297  and  _300
REMARK  124  A    between atoms: _300  and  _301
REMARK  125  A    between atoms: _306  and  _308
REMARK  126  A    between atoms: _308  and  _309
REMARK  127  A    between atoms: _308  and  _311
REMARK  128  A    between atoms: _311  and  _312
REMARK  129  A    between atoms: _318  and  _320
REMARK  130  A    between atoms: _320  and  _321
REMARK  131  A    between atoms: _320  and  _323
REMARK  132  A    between atoms: _323  and  _324
REMARK  133  A    between atoms: _327  and  _329
REMARK  134  A    between atoms: _329  and  _330
REMARK  135  A    between atoms: _333  and  _335
REMARK  136  A    between atoms: _335  and  _336
REMARK  137  A    between atoms: _335  and  _338
REMARK  138  A    between atoms: _338  and  _339
REMARK  139  A    between atoms: _341  and  _343
REMARK  140  A    between atoms: _343  and  _344
REMARK  141  A    between atoms: _343  and  _346
REMARK                            x       y       z     vdW  Elec       q    Type
REMARK                         _______ _______ _______ _____ _____    ______ ____
ROOT
ATOM      1  O   HOH     1      33.393  -9.990  16.577  0.00  0.00    +0.000 OA
ENDROOT
TORSDOF 0
REMARK  Name = ../refined-set-2016/4g8v/4g8v_pocket.pdb
REMARK  141 active torsions:
REMARK  status: ('A' for Active; 'I' for Inactive)
REMARK    1  A    between atoms: _1  and  _3
REMARK    2  A    between atoms: _3  and  _4
REMARK    3  A    between atoms: _3  and  _6
REMARK    4  A    between atoms: _6  and  _7
REMARK    5  A    between atoms: _7  and  _8
REMARK    6  A    between atoms: _11  and  _13
REMARK    7  A    between atoms: _13  and  _14
REMARK    8  A    between atoms: _17  and  _19
REMARK    9  A    between atoms: _19  and  _20
REMARK   10  A    between atoms: _19  and  _22
REMARK   11  A    between atoms: _22  and  _23
REMARK   12  A    between atoms: _23  and  _24
REMARK   13  A    between atoms: _24  and  _25
REMARK   14  A    between atoms: _25  and  _26
REMARK   15  A    between atoms: _30  and  _32
REMARK   16  A    between atoms: _32  and  _33
REMARK   17  A    between atoms: _32  and  _35
REMARK   18  A    between atoms: _35  and  _36
REMARK   19  A    between atoms: _42  and  _44
REMARK   20  A    between atoms: _44  and  _45
REMARK   21  A    between atoms: _44  and  _47
REMARK   22  A    between atoms: _47  and  _48
REMARK   23  A    between atoms: _48  and  _49
REMARK   24  A    between atoms: _49  and  _50
REMARK   25  A    between atoms: _59  and  _61
REMARK   26  A    between atoms: _61  and  _62
REMARK   27  A    between atoms: _61  and  _64
REMARK   28  A    between atoms: _64  and  _65
REMARK   29  A    between atoms: _65  and  _66
REMARK   30  A    between atoms: _71  and  _73
REMARK   31  A    between atoms: _73  and  _74
REMARK   32  A    between atoms: _73  and  _76
REMARK   33  A    between atoms: _76  and  _77
REMARK   34  A    between atoms: _82  and  _84
REMARK   35  A    between atoms: _84  and  _85
REMARK   36  A    between atoms: _84  and  _87
REMARK   37  A    between atoms: _87  and  _88
REMARK   38  A    between atoms: _88  and  _89
REMARK   39  A    between atoms: _91  and  _93
REMARK   40  A    between atoms: _93  and  _94
REMARK   41  A    between atoms: _93  and  _96
REMARK   42  A    between atoms: _96  and  _97
REMARK   43  A    between atoms: _100  and  _102
REMARK   44  A    between atoms: _102  and  _103
REMARK   45  A    between atoms: _102  and  _105
REMARK   46  A    between atoms: _105  and  _106
REMARK   47  A    between atoms: _106  and  _107
REMARK   48  A    between atoms: _107  and  _108
REMARK   49  A    between atoms: _117  and  _119
REMARK   50  A    between atoms: _119  and  _120
REMARK   51  A    between atoms: _119  and  _122
REMARK   52  A    between atoms: _122  and  _123
REMARK   53  A    between atoms: _123  and  _124
REMARK   54  A    between atoms: _124  and  _125
REMARK   55  A    between atoms: _125  and  _126
REMARK   56  A    between atoms: _131  and  _132
REMARK   57  A    between atoms: _137  and  _139
REMARK   58  A    between atoms: _139  and  _140
REMARK   59  A    between atoms: _139  and  _142
REMARK   60  A    between atoms: _145  and  _147
REMARK   61  A    between atoms: _147  and  _148
REMARK   62  A    between atoms: _147  and  _150
REMARK   63  A    between atoms: _150  and  _151
REMARK   64  A    between atoms: _156  and  _158
REMARK   65  A    between atoms: _158  and  _159
REMARK   66  A    between atoms: _158  and  _161
REMARK   67  A    between atoms: _161  and  _162
REMARK   68  A    between atoms: _165  and  _167
REMARK   69  A    between atoms: _167  and  _168
REMARK   70  A    between atoms: _167  and  _170
REMARK   71  A    between atoms: _170  and  _171
REMARK   72  A    between atoms: _177  and  _179
REMARK   73  A    between atoms: _179  and  _180
REMARK   74  A    between atoms: _179  and  _182
REMARK   75  A    between atoms: _182  and  _183
REMARK   76  A    between atoms: _183  and  _184
REMARK   77  A    between atoms: _184  and  _185
REMARK   78  A    between atoms: _185  and  _186
REMARK   79  A    between atoms: _190  and  _192
REMARK   80  A    between atoms: _192  and  _193
REMARK   81  A    between atoms: _192  and  _195
REMARK   82  A    between atoms: _195  and  _196
REMARK   83  A    between atoms: _201  and  _203
REMARK   84  A    between atoms: _203  and  _204
REMARK   85  A    between atoms: _203  and  _206
REMARK   86  A    between atoms: _206  and  _207
REMARK   87  A    between atoms: _210  and  _212
REMARK   88  A    between atoms: _212  and  _213
REMARK   89  A    between atoms: _212  and  _215
REMARK   90  A    between atoms: _215  and  _216
REMARK   91  A    between atoms: _219  and  _221
REMARK   92  A    between atoms: _221  and  _222
REMARK   93  A    between atoms: _221  and  _224
REMARK   94  A    between atoms: _224  and  _225
REMARK   95  A    between atoms: _228  and  _230
REMARK   96  A    between atoms: _230  and  _231
REMARK   97  A    between atoms: _230  and  _233
REMARK   98  A    between atoms: _235  and  _237
REMARK   99  A    between atoms: _237  and  _238
REMARK  100  A    between atoms: _237  and  _240
REMARK  101  A    between atoms: _240  and  _241
REMARK  102  A    between atoms: _241  and  _242
REMARK  103  A    between atoms: _242  and  _243
REMARK  104  A    between atoms: _252  and  _254
REMARK  105  A    between atoms: _254  and  _255
REMARK  106  A    between atoms: _254  and  _257
REMARK  107  A    between atoms: _257  and  _258
REMARK  108  A    between atoms: _258  and  _259
REMARK  109  A    between atoms: _259  and  _260
REMARK  110  A    between atoms: _260  and  _261
REMARK  111  A    between atoms: _265  and  _267
REMARK  112  A    between atoms: _267  and  _268
REMARK  113  A    between atoms: _267  and  _270
REMARK  114  A    between atoms: _270  and  _271
REMARK  115  A    between atoms: _274  and  _276
REMARK  116  A    between atoms: _276  and  _277
REMARK  117  A    between atoms: _281  and  _282
REMARK  118  A    between atoms: _287  and  _289
REMARK  119  A    between atoms: _289  and  _290
REMARK  120  A    between atoms: _289  and  _292
REMARK  121  A    between atoms: _295  and  _297
REMARK  122  A    between atoms: _297  and  _298
REMARK  123  A    between atoms: _297  and  _300
REMARK  124  A    between atoms: _300  and  _301
REMARK  125  A    between atoms: _306  and  _308
REMARK  126  A    between atoms: _308  and  _309
REMARK  127  A    between atoms: _308  and  _311
REMARK  128  A    between atoms: _311  and  _312
REMARK  129  A    between atoms: _318  and  _320
REMARK  130  A    between atoms: _320  and  _321
REMARK  131  A    between atoms: _320  and  _323
REMARK  132  A    between atoms: _323  and  _324
REMARK  133  A    between atoms: _327  and  _329
REMARK  134  A    between atoms: _329  and  _330
REMARK  135  A    between atoms: _333  and  _335
REMARK  136  A    between atoms: _335  and  _336
REMARK  137  A    between atoms: _335  and  _338
REMARK  138  A    between atoms: _338  and  _339
REMARK  139  A    between atoms: _341  and  _343
REMARK  140  A    between atoms: _343  and  _344
REMARK  141  A    between atoms: _343  and  _346
REMARK                            x       y       z     vdW  Elec       q    Type
REMARK                         _______ _______ _______ _____ _____    ______ ____
ROOT
ATOM      1  O   HOH     1      37.412   8.191  22.305  0.00  0.00    +0.000 OA
ENDROOT
TORSDOF 0
REMARK  Name = ../refined-set-2016/4g8v/4g8v_pocket.pdb
REMARK  141 active torsions:
REMARK  status: ('A' for Active; 'I' for Inactive)
REMARK    1  A    between atoms: _1  and  _3
REMARK    2  A    between atoms: _3  and  _4
REMARK    3  A    between atoms: _3  and  _6
REMARK    4  A    between atoms: _6  and  _7
REMARK    5  A    between atoms: _7  and  _8
REMARK    6  A    between atoms: _11  and  _13
REMARK    7  A    between atoms: _13  and  _14
REMARK    8  A    between atoms: _17  and  _19
REMARK    9  A    between atoms: _19  and  _20
REMARK   10  A    between atoms: _19  and  _22
REMARK   11  A    between atoms: _22  and  _23
REMARK   12  A    between atoms: _23  and  _24
REMARK   13  A    between atoms: _24  and  _25
REMARK   14  A    between atoms: _25  and  _26
REMARK   15  A    between atoms: _30  and  _32
REMARK   16  A    between atoms: _32  and  _33
REMARK   17  A    between atoms: _32  and  _35
REMARK   18  A    between atoms: _35  and  _36
REMARK   19  A    between atoms: _42  and  _44
REMARK   20  A    between atoms: _44  and  _45
REMARK   21  A    between atoms: _44  and  _47
REMARK   22  A    between atoms: _47  and  _48
REMARK   23  A    between atoms: _48  and  _49
REMARK   24  A    between atoms: _49  and  _50
REMARK   25  A    between atoms: _59  and  _61
REMARK   26  A    between atoms: _61  and  _62
REMARK   27  A    between atoms: _61  and  _64
REMARK   28  A    between atoms: _64  and  _65
REMARK   29  A    between atoms: _65  and  _66
REMARK   30  A    between atoms: _71  and  _73
REMARK   31  A    between atoms: _73  and  _74
REMARK   32  A    between atoms: _73  and  _76
REMARK   33  A    between atoms: _76  and  _77
REMARK   34  A    between atoms: _82  and  _84
REMARK   35  A    between atoms: _84  and  _85
REMARK   36  A    between atoms: _84  and  _87
REMARK   37  A    between atoms: _87  and  _88
REMARK   38  A    between atoms: _88  and  _89
REMARK   39  A    between atoms: _91  and  _93
REMARK   40  A    between atoms: _93  and  _94
REMARK   41  A    between atoms: _93  and  _96
REMARK   42  A    between atoms: _96  and  _97
REMARK   43  A    between atoms: _100  and  _102
REMARK   44  A    between atoms: _102  and  _103
REMARK   45  A    between atoms: _102  and  _105
REMARK   46  A    between atoms: _105  and  _106
REMARK   47  A    between atoms: _106  and  _107
REMARK   48  A    between atoms: _107  and  _108
REMARK   49  A    between atoms: _117  and  _119
REMARK   50  A    between atoms: _119  and  _120
REMARK   51  A    between atoms: _119  and  _122
REMARK   52  A    between atoms: _122  and  _123
REMARK   53  A    between atoms: _123  and  _124
REMARK   54  A    between atoms: _124  and  _125
REMARK   55  A    between atoms: _125  and  _126
REMARK   56  A    between atoms: _131  and  _132
REMARK   57  A    between atoms: _137  and  _139
REMARK   58  A    between atoms: _139  and  _140
REMARK   59  A    between atoms: _139  and  _142
REMARK   60  A    between atoms: _145  and  _147
REMARK   61  A    between atoms: _147  and  _148
REMARK   62  A    between atoms: _147  and  _150
REMARK   63  A    between atoms: _150  and  _151
REMARK   64  A    between atoms: _156  and  _158
REMARK   65  A    between atoms: _158  and  _159
REMARK   66  A    between atoms: _158  and  _161
REMARK   67  A    between atoms: _161  and  _162
REMARK   68  A    between atoms: _165  and  _167
REMARK   69  A    between atoms: _167  and  _168
REMARK   70  A    between atoms: _167  and  _170
REMARK   71  A    between atoms: _170  and  _171
REMARK   72  A    between atoms: _177  and  _179
REMARK   73  A    between atoms: _179  and  _180
REMARK   74  A    between atoms: _179  and  _182
REMARK   75  A    between atoms: _182  and  _183
REMARK   76  A    between atoms: _183  and  _184
REMARK   77  A    between atoms: _184  and  _185
REMARK   78  A    between atoms: _185  and  _186
REMARK   79  A    between atoms: _190  and  _192
REMARK   80  A    between atoms: _192  and  _193
REMARK   81  A    between atoms: _192  and  _195
REMARK   82  A    between atoms: _195  and  _196
REMARK   83  A    between atoms: _201  and  _203
REMARK   84  A    between atoms: _203  and  _204
REMARK   85  A    between atoms: _203  and  _206
REMARK   86  A    between atoms: _206  and  _207
REMARK   87  A    between atoms: _210  and  _212
REMARK   88  A    between atoms: _212  and  _213
REMARK   89  A    between atoms: _212  and  _215
REMARK   90  A    between atoms: _215  and  _216
REMARK   91  A    between atoms: _219  and  _221
REMARK   92  A    between atoms: _221  and  _222
REMARK   93  A    between atoms: _221  and  _224
REMARK   94  A    between atoms: _224  and  _225
REMARK   95  A    between atoms: _228  and  _230
REMARK   96  A    between atoms: _230  and  _231
REMARK   97  A    between atoms: _230  and  _233
REMARK   98  A    between atoms: _235  and  _237
REMARK   99  A    between atoms: _237  and  _238
REMARK  100  A    between atoms: _237  and  _240
REMARK  101  A    between atoms: _240  and  _241
REMARK  102  A    between atoms: _241  and  _242
REMARK  103  A    between atoms: _242  and  _243
REMARK  104  A    between atoms: _252  and  _254
REMARK  105  A    between atoms: _254  and  _255
REMARK  106  A    between atoms: _254  and  _257
REMARK  107  A    between atoms: _257  and  _258
REMARK  108  A    between atoms: _258  and  _259
REMARK  109  A    between atoms: _259  and  _260
REMARK  110  A    between atoms: _260  and  _261
REMARK  111  A    between atoms: _265  and  _267
REMARK  112  A    between atoms: _267  and  _268
REMARK  113  A    between atoms: _267  and  _270
REMARK  114  A    between atoms: _270  and  _271
REMARK  115  A    between atoms: _274  and  _276
REMARK  116  A    between atoms: _276  and  _277
REMARK  117  A    between atoms: _281  and  _282
REMARK  118  A    between atoms: _287  and  _289
REMARK  119  A    between atoms: _289  and  _290
REMARK  120  A    between atoms: _289  and  _292
REMARK  121  A    between atoms: _295  and  _297
REMARK  122  A    between atoms: _297  and  _298
REMARK  123  A    between atoms: _297  and  _300
REMARK  124  A    between atoms: _300  and  _301
REMARK  125  A    between atoms: _306  and  _308
REMARK  126  A    between atoms: _308  and  _309
REMARK  127  A    between atoms: _308  and  _311
REMARK  128  A    between atoms: _311  and  _312
REMARK  129  A    between atoms: _318  and  _320
REMARK  130  A    between atoms: _320  and  _321
REMARK  131  A    between atoms: _320  and  _323
REMARK  132  A    between atoms: _323  and  _324
REMARK  133  A    between atoms: _327  and  _329
REMARK  134  A    between atoms: _329  and  _330
REMARK  135  A    between atoms: _333  and  _335
REMARK  136  A    between atoms: _335  and  _336
REMARK  137  A    between atoms: _335  and  _338
REMARK  138  A    between atoms: _338  and  _339
REMARK  139  A    between atoms: _341  and  _343
REMARK  140  A    between atoms: _343  and  _344
REMARK  141  A    between atoms: _343  and  _346
REMARK                            x       y       z     vdW  Elec       q    Type
REMARK                         _______ _______ _______ _____ _____    ______ ____
ROOT
ATOM      1  O   HOH     1      38.532   8.449   6.675  0.00  0.00    +0.000 OA
ENDROOT
TORSDOF 0
REMARK  Name = ../refined-set-2016/4g8v/4g8v_pocket.pdb
REMARK  141 active torsions:
REMARK  status: ('A' for Active; 'I' for Inactive)
REMARK    1  A    between atoms: _1  and  _3
REMARK    2  A    between atoms: _3  and  _4
REMARK    3  A    between atoms: _3  and  _6
REMARK    4  A    between atoms: _6  and  _7
REMARK    5  A    between atoms: _7  and  _8
REMARK    6  A    between atoms: _11  and  _13
REMARK    7  A    between atoms: _13  and  _14
REMARK    8  A    between atoms: _17  and  _19
REMARK    9  A    between atoms: _19  and  _20
REMARK   10  A    between atoms: _19  and  _22
REMARK   11  A    between atoms: _22  and  _23
REMARK   12  A    between atoms: _23  and  _24
REMARK   13  A    between atoms: _24  and  _25
REMARK   14  A    between atoms: _25  and  _26
REMARK   15  A    between atoms: _30  and  _32
REMARK   16  A    between atoms: _32  and  _33
REMARK   17  A    between atoms: _32  and  _35
REMARK   18  A    between atoms: _35  and  _36
REMARK   19  A    between atoms: _42  and  _44
REMARK   20  A    between atoms: _44  and  _45
REMARK   21  A    between atoms: _44  and  _47
REMARK   22  A    between atoms: _47  and  _48
REMARK   23  A    between atoms: _48  and  _49
REMARK   24  A    between atoms: _49  and  _50
REMARK   25  A    between atoms: _59  and  _61
REMARK   26  A    between atoms: _61  and  _62
REMARK   27  A    between atoms: _61  and  _64
REMARK   28  A    between atoms: _64  and  _65
REMARK   29  A    between atoms: _65  and  _66
REMARK   30  A    between atoms: _71  and  _73
REMARK   31  A    between atoms: _73  and  _74
REMARK   32  A    between atoms: _73  and  _76
REMARK   33  A    between atoms: _76  and  _77
REMARK   34  A    between atoms: _82  and  _84
REMARK   35  A    between atoms: _84  and  _85
REMARK   36  A    between atoms: _84  and  _87
REMARK   37  A    between atoms: _87  and  _88
REMARK   38  A    between atoms: _88  and  _89
REMARK   39  A    between atoms: _91  and  _93
REMARK   40  A    between atoms: _93  and  _94
REMARK   41  A    between atoms: _93  and  _96
REMARK   42  A    between atoms: _96  and  _97
REMARK   43  A    between atoms: _100  and  _102
REMARK   44  A    between atoms: _102  and  _103
REMARK   45  A    between atoms: _102  and  _105
REMARK   46  A    between atoms: _105  and  _106
REMARK   47  A    between atoms: _106  and  _107
REMARK   48  A    between atoms: _107  and  _108
REMARK   49  A    between atoms: _117  and  _119
REMARK   50  A    between atoms: _119  and  _120
REMARK   51  A    between atoms: _119  and  _122
REMARK   52  A    between atoms: _122  and  _123
REMARK   53  A    between atoms: _123  and  _124
REMARK   54  A    between atoms: _124  and  _125
REMARK   55  A    between atoms: _125  and  _126
REMARK   56  A    between atoms: _131  and  _132
REMARK   57  A    between atoms: _137  and  _139
REMARK   58  A    between atoms: _139  and  _140
REMARK   59  A    between atoms: _139  and  _142
REMARK   60  A    between atoms: _145  and  _147
REMARK   61  A    between atoms: _147  and  _148
REMARK   62  A    between atoms: _147  and  _150
REMARK   63  A    between atoms: _150  and  _151
REMARK   64  A    between atoms: _156  and  _158
REMARK   65  A    between atoms: _158  and  _159
REMARK   66  A    between atoms: _158  and  _161
REMARK   67  A    between atoms: _161  and  _162
REMARK   68  A    between atoms: _165  and  _167
REMARK   69  A    between atoms: _167  and  _168
REMARK   70  A    between atoms: _167  and  _170
REMARK   71  A    between atoms: _170  and  _171
REMARK   72  A    between atoms: _177  and  _179
REMARK   73  A    between atoms: _179  and  _180
REMARK   74  A    between atoms: _179  and  _182
REMARK   75  A    between atoms: _182  and  _183
REMARK   76  A    between atoms: _183  and  _184
REMARK   77  A    between atoms: _184  and  _185
REMARK   78  A    between atoms: _185  and  _186
REMARK   79  A    between atoms: _190  and  _192
REMARK   80  A    between atoms: _192  and  _193
REMARK   81  A    between atoms: _192  and  _195
REMARK   82  A    between atoms: _195  and  _196
REMARK   83  A    between atoms: _201  and  _203
REMARK   84  A    between atoms: _203  and  _204
REMARK   85  A    between atoms: _203  and  _206
REMARK   86  A    between atoms: _206  and  _207
REMARK   87  A    between atoms: _210  and  _212
REMARK   88  A    between atoms: _212  and  _213
REMARK   89  A    between atoms: _212  and  _215
REMARK   90  A    between atoms: _215  and  _216
REMARK   91  A    between atoms: _219  and  _221
REMARK   92  A    between atoms: _221  and  _222
REMARK   93  A    between atoms: _221  and  _224
REMARK   94  A    between atoms: _224  and  _225
REMARK   95  A    between atoms: _228  and  _230
REMARK   96  A    between atoms: _230  and  _231
REMARK   97  A    between atoms: _230  and  _233
REMARK   98  A    between atoms: _235  and  _237
REMARK   99  A    between atoms: _237  and  _238
REMARK  100  A    between atoms: _237  and  _240
REMARK  101  A    between atoms: _240  and  _241
REMARK  102  A    between atoms: _241  and  _242
REMARK  103  A    between atoms: _242  and  _243
REMARK  104  A    between atoms: _252  and  _254
REMARK  105  A    between atoms: _254  and  _255
REMARK  106  A    between atoms: _254  and  _257
REMARK  107  A    between atoms: _257  and  _258
REMARK  108  A    between atoms: _258  and  _259
REMARK  109  A    between atoms: _259  and  _260
REMARK  110  A    between atoms: _260  and  _261
REMARK  111  A    between atoms: _265  and  _267
REMARK  112  A    between atoms: _267  and  _268
REMARK  113  A    between atoms: _267  and  _270
REMARK  114  A    between atoms: _270  and  _271
REMARK  115  A    between atoms: _274  and  _276
REMARK  116  A    between atoms: _276  and  _277
REMARK  117  A    between atoms: _281  and  _282
REMARK  118  A    between atoms: _287  and  _289
REMARK  119  A    between atoms: _289  and  _290
REMARK  120  A    between atoms: _289  and  _292
REMARK  121  A    between atoms: _295  and  _297
REMARK  122  A    between atoms: _297  and  _298
REMARK  123  A    between atoms: _297  and  _300
REMARK  124  A    between atoms: _300  and  _301
REMARK  125  A    between atoms: _306  and  _308
REMARK  126  A    between atoms: _308  and  _309
REMARK  127  A    between atoms: _308  and  _311
REMARK  128  A    between atoms: _311  and  _312
REMARK  129  A    between atoms: _318  and  _320
REMARK  130  A    between atoms: _320  and  _321
REMARK  131  A    between atoms: _320  and  _323
REMARK  132  A    between atoms: _323  and  _324
REMARK  133  A    between atoms: _327  and  _329
REMARK  134  A    between atoms: _329  and  _330
REMARK  135  A    between atoms: _333  and  _335
REMARK  136  A    between atoms: _335  and  _336
REMARK  137  A    between atoms: _335  and  _338
REMARK  138  A    between atoms: _338  and  _339
REMARK  139  A    between atoms: _341  and  _343
REMARK  140  A    between atoms: _343  and  _344
REMARK  141  A    between atoms: _343  and  _346
REMARK                            x       y       z     vdW  Elec       q    Type
REMARK                         _______ _______ _______ _____ _____    ______ ____
ROOT
ATOM      1  O   HOH     1      37.586  -2.445  17.120  0.00  0.00    +0.000 OA
ENDROOT
TORSDOF 0
REMARK  Name = ../refined-set-2016/4g8v/4g8v_pocket.pdb
REMARK  141 active torsions:
REMARK  status: ('A' for Active; 'I' for Inactive)
REMARK    1  A    between atoms: _1  and  _3
REMARK    2  A    between atoms: _3  and  _4
REMARK    3  A    between atoms: _3  and  _6
REMARK    4  A    between atoms: _6  and  _7
REMARK    5  A    between atoms: _7  and  _8
REMARK    6  A    between atoms: _11  and  _13
REMARK    7  A    between atoms: _13  and  _14
REMARK    8  A    between atoms: _17  and  _19
REMARK    9  A    between atoms: _19  and  _20
REMARK   10  A    between atoms: _19  and  _22
REMARK   11  A    between atoms: _22  and  _23
REMARK   12  A    between atoms: _23  and  _24
REMARK   13  A    between atoms: _24  and  _25
REMARK   14  A    between atoms: _25  and  _26
REMARK   15  A    between atoms: _30  and  _32
REMARK   16  A    between atoms: _32  and  _33
REMARK   17  A    between atoms: _32  and  _35
REMARK   18  A    between atoms: _35  and  _36
REMARK   19  A    between atoms: _42  and  _44
REMARK   20  A    between atoms: _44  and  _45
REMARK   21  A    between atoms: _44  and  _47
REMARK   22  A    between atoms: _47  and  _48
REMARK   23  A    between atoms: _48  and  _49
REMARK   24  A    between atoms: _49  and  _50
REMARK   25  A    between atoms: _59  and  _61
REMARK   26  A    between atoms: _61  and  _62
REMARK   27  A    between atoms: _61  and  _64
REMARK   28  A    between atoms: _64  and  _65
REMARK   29  A    between atoms: _65  and  _66
REMARK   30  A    between atoms: _71  and  _73
REMARK   31  A    between atoms: _73  and  _74
REMARK   32  A    between atoms: _73  and  _76
REMARK   33  A    between atoms: _76  and  _77
REMARK   34  A    between atoms: _82  and  _84
REMARK   35  A    between atoms: _84  and  _85
REMARK   36  A    between atoms: _84  and  _87
REMARK   37  A    between atoms: _87  and  _88
REMARK   38  A    between atoms: _88  and  _89
REMARK   39  A    between atoms: _91  and  _93
REMARK   40  A    between atoms: _93  and  _94
REMARK   41  A    between atoms: _93  and  _96
REMARK   42  A    between atoms: _96  and  _97
REMARK   43  A    between atoms: _100  and  _102
REMARK   44  A    between atoms: _102  and  _103
REMARK   45  A    between atoms: _102  and  _105
REMARK   46  A    between atoms: _105  and  _106
REMARK   47  A    between atoms: _106  and  _107
REMARK   48  A    between atoms: _107  and  _108
REMARK   49  A    between atoms: _117  and  _119
REMARK   50  A    between atoms: _119  and  _120
REMARK   51  A    between atoms: _119  and  _122
REMARK   52  A    between atoms: _122  and  _123
REMARK   53  A    between atoms: _123  and  _124
REMARK   54  A    between atoms: _124  and  _125
REMARK   55  A    between atoms: _125  and  _126
REMARK   56  A    between atoms: _131  and  _132
REMARK   57  A    between atoms: _137  and  _139
REMARK   58  A    between atoms: _139  and  _140
REMARK   59  A    between atoms: _139  and  _142
REMARK   60  A    between atoms: _145  and  _147
REMARK   61  A    between atoms: _147  and  _148
REMARK   62  A    between atoms: _147  and  _150
REMARK   63  A    between atoms: _150  and  _151
REMARK   64  A    between atoms: _156  and  _158
REMARK   65  A    between atoms: _158  and  _159
REMARK   66  A    between atoms: _158  and  _161
REMARK   67  A    between atoms: _161  and  _162
REMARK   68  A    between atoms: _165  and  _167
REMARK   69  A    between atoms: _167  and  _168
REMARK   70  A    between atoms: _167  and  _170
REMARK   71  A    between atoms: _170  and  _171
REMARK   72  A    between atoms: _177  and  _179
REMARK   73  A    between atoms: _179  and  _180
REMARK   74  A    between atoms: _179  and  _182
REMARK   75  A    between atoms: _182  and  _183
REMARK   76  A    between atoms: _183  and  _184
REMARK   77  A    between atoms: _184  and  _185
REMARK   78  A    between atoms: _185  and  _186
REMARK   79  A    between atoms: _190  and  _192
REMARK   80  A    between atoms: _192  and  _193
REMARK   81  A    between atoms: _192  and  _195
REMARK   82  A    between atoms: _195  and  _196
REMARK   83  A    between atoms: _201  and  _203
REMARK   84  A    between atoms: _203  and  _204
REMARK   85  A    between atoms: _203  and  _206
REMARK   86  A    between atoms: _206  and  _207
REMARK   87  A    between atoms: _210  and  _212
REMARK   88  A    between atoms: _212  and  _213
REMARK   89  A    between atoms: _212  and  _215
REMARK   90  A    between atoms: _215  and  _216
REMARK   91  A    between atoms: _219  and  _221
REMARK   92  A    between atoms: _221  and  _222
REMARK   93  A    between atoms: _221  and  _224
REMARK   94  A    between atoms: _224  and  _225
REMARK   95  A    between atoms: _228  and  _230
REMARK   96  A    between atoms: _230  and  _231
REMARK   97  A    between atoms: _230  and  _233
REMARK   98  A    between atoms: _235  and  _237
REMARK   99  A    between atoms: _237  and  _238
REMARK  100  A    between atoms: _237  and  _240
REMARK  101  A    between atoms: _240  and  _241
REMARK  102  A    between atoms: _241  and  _242
REMARK  103  A    between atoms: _242  and  _243
REMARK  104  A    between atoms: _252  and  _254
REMARK  105  A    between atoms: _254  and  _255
REMARK  106  A    between atoms: _254  and  _257
REMARK  107  A    between atoms: _257  and  _258
REMARK  108  A    between atoms: _258  and  _259
REMARK  109  A    between atoms: _259  and  _260
REMARK  110  A    between atoms: _260  and  _261
REMARK  111  A    between atoms: _265  and  _267
REMARK  112  A    between atoms: _267  and  _268
REMARK  113  A    between atoms: _267  and  _270
REMARK  114  A    between atoms: _270  and  _271
REMARK  115  A    between atoms: _274  and  _276
REMARK  116  A    between atoms: _276  and  _277
REMARK  117  A    between atoms: _281  and  _282
REMARK  118  A    between atoms: _287  and  _289
REMARK  119  A    between atoms: _289  and  _290
REMARK  120  A    between atoms: _289  and  _292
REMARK  121  A    between atoms: _295  and  _297
REMARK  122  A    between atoms: _297  and  _298
REMARK  123  A    between atoms: _297  and  _300
REMARK  124  A    between atoms: _300  and  _301
REMARK  125  A    between atoms: _306  and  _308
REMARK  126  A    between atoms: _308  and  _309
REMARK  127  A    between atoms: _308  and  _311
REMARK  128  A    between atoms: _311  and  _312
REMARK  129  A    between atoms: _318  and  _320
REMARK  130  A    between atoms: _320  and  _321
REMARK  131  A    between atoms: _320  and  _323
REMARK  132  A    between atoms: _323  and  _324
REMARK  133  A    between atoms: _327  and  _329
REMARK  134  A    between atoms: _329  and  _330
REMARK  135  A    between atoms: _333  and  _335
REMARK  136  A    between atoms: _335  and  _336
REMARK  137  A    between atoms: _335  and  _338
REMARK  138  A    between atoms: _338  and  _339
REMARK  139  A    between atoms: _341  and  _343
REMARK  140  A    between atoms: _343  and  _344
REMARK  141  A    between atoms: _343  and  _346
REMARK                            x       y       z     vdW  Elec       q    Type
REMARK                         _______ _______ _______ _____ _____    ______ ____
ROOT
ATOM      1  O   HOH     1      30.561 -10.336   6.990  0.00  0.00    +0.000 OA
ENDROOT
TORSDOF 0
REMARK  Name = ../refined-set-2016/4g8v/4g8v_pocket.pdb
REMARK  141 active torsions:
REMARK  status: ('A' for Active; 'I' for Inactive)
REMARK    1  A    between atoms: _1  and  _3
REMARK    2  A    between atoms: _3  and  _4
REMARK    3  A    between atoms: _3  and  _6
REMARK    4  A    between atoms: _6  and  _7
REMARK    5  A    between atoms: _7  and  _8
REMARK    6  A    between atoms: _11  and  _13
REMARK    7  A    between atoms: _13  and  _14
REMARK    8  A    between atoms: _17  and  _19
REMARK    9  A    between atoms: _19  and  _20
REMARK   10  A    between atoms: _19  and  _22
REMARK   11  A    between atoms: _22  and  _23
REMARK   12  A    between atoms: _23  and  _24
REMARK   13  A    between atoms: _24  and  _25
REMARK   14  A    between atoms: _25  and  _26
REMARK   15  A    between atoms: _30  and  _32
REMARK   16  A    between atoms: _32  and  _33
REMARK   17  A    between atoms: _32  and  _35
REMARK   18  A    between atoms: _35  and  _36
REMARK   19  A    between atoms: _42  and  _44
REMARK   20  A    between atoms: _44  and  _45
REMARK   21  A    between atoms: _44  and  _47
REMARK   22  A    between atoms: _47  and  _48
REMARK   23  A    between atoms: _48  and  _49
REMARK   24  A    between atoms: _49  and  _50
REMARK   25  A    between atoms: _59  and  _61
REMARK   26  A    between atoms: _61  and  _62
REMARK   27  A    between atoms: _61  and  _64
REMARK   28  A    between atoms: _64  and  _65
REMARK   29  A    between atoms: _65  and  _66
REMARK   30  A    between atoms: _71  and  _73
REMARK   31  A    between atoms: _73  and  _74
REMARK   32  A    between atoms: _73  and  _76
REMARK   33  A    between atoms: _76  and  _77
REMARK   34  A    between atoms: _82  and  _84
REMARK   35  A    between atoms: _84  and  _85
REMARK   36  A    between atoms: _84  and  _87
REMARK   37  A    between atoms: _87  and  _88
REMARK   38  A    between atoms: _88  and  _89
REMARK   39  A    between atoms: _91  and  _93
REMARK   40  A    between atoms: _93  and  _94
REMARK   41  A    between atoms: _93  and  _96
REMARK   42  A    between atoms: _96  and  _97
REMARK   43  A    between atoms: _100  and  _102
REMARK   44  A    between atoms: _102  and  _103
REMARK   45  A    between atoms: _102  and  _105
REMARK   46  A    between atoms: _105  and  _106
REMARK   47  A    between atoms: _106  and  _107
REMARK   48  A    between atoms: _107  and  _108
REMARK   49  A    between atoms: _117  and  _119
REMARK   50  A    between atoms: _119  and  _120
REMARK   51  A    between atoms: _119  and  _122
REMARK   52  A    between atoms: _122  and  _123
REMARK   53  A    between atoms: _123  and  _124
REMARK   54  A    between atoms: _124  and  _125
REMARK   55  A    between atoms: _125  and  _126
REMARK   56  A    between atoms: _131  and  _132
REMARK   57  A    between atoms: _137  and  _139
REMARK   58  A    between atoms: _139  and  _140
REMARK   59  A    between atoms: _139  and  _142
REMARK   60  A    between atoms: _145  and  _147
REMARK   61  A    between atoms: _147  and  _148
REMARK   62  A    between atoms: _147  and  _150
REMARK   63  A    between atoms: _150  and  _151
REMARK   64  A    between atoms: _156  and  _158
REMARK   65  A    between atoms: _158  and  _159
REMARK   66  A    between atoms: _158  and  _161
REMARK   67  A    between atoms: _161  and  _162
REMARK   68  A    between atoms: _165  and  _167
REMARK   69  A    between atoms: _167  and  _168
REMARK   70  A    between atoms: _167  and  _170
REMARK   71  A    between atoms: _170  and  _171
REMARK   72  A    between atoms: _177  and  _179
REMARK   73  A    between atoms: _179  and  _180
REMARK   74  A    between atoms: _179  and  _182
REMARK   75  A    between atoms: _182  and  _183
REMARK   76  A    between atoms: _183  and  _184
REMARK   77  A    between atoms: _184  and  _185
REMARK   78  A    between atoms: _185  and  _186
REMARK   79  A    between atoms: _190  and  _192
REMARK   80  A    between atoms: _192  and  _193
REMARK   81  A    between atoms: _192  and  _195
REMARK   82  A    between atoms: _195  and  _196
REMARK   83  A    between atoms: _201  and  _203
REMARK   84  A    between atoms: _203  and  _204
REMARK   85  A    between atoms: _203  and  _206
REMARK   86  A    between atoms: _206  and  _207
REMARK   87  A    between atoms: _210  and  _212
REMARK   88  A    between atoms: _212  and  _213
REMARK   89  A    between atoms: _212  and  _215
REMARK   90  A    between atoms: _215  and  _216
REMARK   91  A    between atoms: _219  and  _221
REMARK   92  A    between atoms: _221  and  _222
REMARK   93  A    between atoms: _221  and  _224
REMARK   94  A    between atoms: _224  and  _225
REMARK   95  A    between atoms: _228  and  _230
REMARK   96  A    between atoms: _230  and  _231
REMARK   97  A    between atoms: _230  and  _233
REMARK   98  A    between atoms: _235  and  _237
REMARK   99  A    between atoms: _237  and  _238
REMARK  100  A    between atoms: _237  and  _240
REMARK  101  A    between atoms: _240  and  _241
REMARK  102  A    between atoms: _241  and  _242
REMARK  103  A    between atoms: _242  and  _243
REMARK  104  A    between atoms: _252  and  _254
REMARK  105  A    between atoms: _254  and  _255
REMARK  106  A    between atoms: _254  and  _257
REMARK  107  A    between atoms: _257  and  _258
REMARK  108  A    between atoms: _258  and  _259
REMARK  109  A    between atoms: _259  and  _260
REMARK  110  A    between atoms: _260  and  _261
REMARK  111  A    between atoms: _265  and  _267
REMARK  112  A    between atoms: _267  and  _268
REMARK  113  A    between atoms: _267  and  _270
REMARK  114  A    between atoms: _270  and  _271
REMARK  115  A    between atoms: _274  and  _276
REMARK  116  A    between atoms: _276  and  _277
REMARK  117  A    between atoms: _281  and  _282
REMARK  118  A    between atoms: _287  and  _289
REMARK  119  A    between atoms: _289  and  _290
REMARK  120  A    between atoms: _289  and  _292
REMARK  121  A    between atoms: _295  and  _297
REMARK  122  A    between atoms: _297  and  _298
REMARK  123  A    between atoms: _297  and  _300
REMARK  124  A    between atoms: _300  and  _301
REMARK  125  A    between atoms: _306  and  _308
REMARK  126  A    between atoms: _308  and  _309
REMARK  127  A    between atoms: _308  and  _311
REMARK  128  A    between atoms: _311  and  _312
REMARK  129  A    between atoms: _318  and  _320
REMARK  130  A    between atoms: _320  and  _321
REMARK  131  A    between atoms: _320  and  _323
REMARK  132  A    between atoms: _323  and  _324
REMARK  133  A    between atoms: _327  and  _329
REMARK  134  A    between atoms: _329  and  _330
REMARK  135  A    between atoms: _333  and  _335
REMARK  136  A    between atoms: _335  and  _336
REMARK  137  A    between atoms: _335  and  _338
REMARK  138  A    between atoms: _338  and  _339
REMARK  139  A    between atoms: _341  and  _343
REMARK  140  A    between atoms: _343  and  _344
REMARK  141  A    between atoms: _343  and  _346
REMARK                            x       y       z     vdW  Elec       q    Type
REMARK                         _______ _______ _______ _____ _____    ______ ____
ROOT
ATOM      1  O   HOH     1      37.523  13.401  10.392  0.00  0.00    +0.000 OA
ENDROOT
TORSDOF 0
REMARK  Name = ../refined-set-2016/4g8v/4g8v_pocket.pdb
REMARK  141 active torsions:
REMARK  status: ('A' for Active; 'I' for Inactive)
REMARK    1  A    between atoms: _1  and  _3
REMARK    2  A    between atoms: _3  and  _4
REMARK    3  A    between atoms: _3  and  _6
REMARK    4  A    between atoms: _6  and  _7
REMARK    5  A    between atoms: _7  and  _8
REMARK    6  A    between atoms: _11  and  _13
REMARK    7  A    between atoms: _13  and  _14
REMARK    8  A    between atoms: _17  and  _19
REMARK    9  A    between atoms: _19  and  _20
REMARK   10  A    between atoms: _19  and  _22
REMARK   11  A    between atoms: _22  and  _23
REMARK   12  A    between atoms: _23  and  _24
REMARK   13  A    between atoms: _24  and  _25
REMARK   14  A    between atoms: _25  and  _26
REMARK   15  A    between atoms: _30  and  _32
REMARK   16  A    between atoms: _32  and  _33
REMARK   17  A    between atoms: _32  and  _35
REMARK   18  A    between atoms: _35  and  _36
REMARK   19  A    between atoms: _42  and  _44
REMARK   20  A    between atoms: _44  and  _45
REMARK   21  A    between atoms: _44  and  _47
REMARK   22  A    between atoms: _47  and  _48
REMARK   23  A    between atoms: _48  and  _49
REMARK   24  A    between atoms: _49  and  _50
REMARK   25  A    between atoms: _59  and  _61
REMARK   26  A    between atoms: _61  and  _62
REMARK   27  A    between atoms: _61  and  _64
REMARK   28  A    between atoms: _64  and  _65
REMARK   29  A    between atoms: _65  and  _66
REMARK   30  A    between atoms: _71  and  _73
REMARK   31  A    between atoms: _73  and  _74
REMARK   32  A    between atoms: _73  and  _76
REMARK   33  A    between atoms: _76  and  _77
REMARK   34  A    between atoms: _82  and  _84
REMARK   35  A    between atoms: _84  and  _85
REMARK   36  A    between atoms: _84  and  _87
REMARK   37  A    between atoms: _87  and  _88
REMARK   38  A    between atoms: _88  and  _89
REMARK   39  A    between atoms: _91  and  _93
REMARK   40  A    between atoms: _93  and  _94
REMARK   41  A    between atoms: _93  and  _96
REMARK   42  A    between atoms: _96  and  _97
REMARK   43  A    between atoms: _100  and  _102
REMARK   44  A    between atoms: _102  and  _103
REMARK   45  A    between atoms: _102  and  _105
REMARK   46  A    between atoms: _105  and  _106
REMARK   47  A    between atoms: _106  and  _107
REMARK   48  A    between atoms: _107  and  _108
REMARK   49  A    between atoms: _117  and  _119
REMARK   50  A    between atoms: _119  and  _120
REMARK   51  A    between atoms: _119  and  _122
REMARK   52  A    between atoms: _122  and  _123
REMARK   53  A    between atoms: _123  and  _124
REMARK   54  A    between atoms: _124  and  _125
REMARK   55  A    between atoms: _125  and  _126
REMARK   56  A    between atoms: _131  and  _132
REMARK   57  A    between atoms: _137  and  _139
REMARK   58  A    between atoms: _139  and  _140
REMARK   59  A    between atoms: _139  and  _142
REMARK   60  A    between atoms: _145  and  _147
REMARK   61  A    between atoms: _147  and  _148
REMARK   62  A    between atoms: _147  and  _150
REMARK   63  A    between atoms: _150  and  _151
REMARK   64  A    between atoms: _156  and  _158
REMARK   65  A    between atoms: _158  and  _159
REMARK   66  A    between atoms: _158  and  _161
REMARK   67  A    between atoms: _161  and  _162
REMARK   68  A    between atoms: _165  and  _167
REMARK   69  A    between atoms: _167  and  _168
REMARK   70  A    between atoms: _167  and  _170
REMARK   71  A    between atoms: _170  and  _171
REMARK   72  A    between atoms: _177  and  _179
REMARK   73  A    between atoms: _179  and  _180
REMARK   74  A    between atoms: _179  and  _182
REMARK   75  A    between atoms: _182  and  _183
REMARK   76  A    between atoms: _183  and  _184
REMARK   77  A    between atoms: _184  and  _185
REMARK   78  A    between atoms: _185  and  _186
REMARK   79  A    between atoms: _190  and  _192
REMARK   80  A    between atoms: _192  and  _193
REMARK   81  A    between atoms: _192  and  _195
REMARK   82  A    between atoms: _195  and  _196
REMARK   83  A    between atoms: _201  and  _203
REMARK   84  A    between atoms: _203  and  _204
REMARK   85  A    between atoms: _203  and  _206
REMARK   86  A    between atoms: _206  and  _207
REMARK   87  A    between atoms: _210  and  _212
REMARK   88  A    between atoms: _212  and  _213
REMARK   89  A    between atoms: _212  and  _215
REMARK   90  A    between atoms: _215  and  _216
REMARK   91  A    between atoms: _219  and  _221
REMARK   92  A    between atoms: _221  and  _222
REMARK   93  A    between atoms: _221  and  _224
REMARK   94  A    between atoms: _224  and  _225
REMARK   95  A    between atoms: _228  and  _230
REMARK   96  A    between atoms: _230  and  _231
REMARK   97  A    between atoms: _230  and  _233
REMARK   98  A    between atoms: _235  and  _237
REMARK   99  A    between atoms: _237  and  _238
REMARK  100  A    between atoms: _237  and  _240
REMARK  101  A    between atoms: _240  and  _241
REMARK  102  A    between atoms: _241  and  _242
REMARK  103  A    between atoms: _242  and  _243
REMARK  104  A    between atoms: _252  and  _254
REMARK  105  A    between atoms: _254  and  _255
REMARK  106  A    between atoms: _254  and  _257
REMARK  107  A    between atoms: _257  and  _258
REMARK  108  A    between atoms: _258  and  _259
REMARK  109  A    between atoms: _259  and  _260
REMARK  110  A    between atoms: _260  and  _261
REMARK  111  A    between atoms: _265  and  _267
REMARK  112  A    between atoms: _267  and  _268
REMARK  113  A    between atoms: _267  and  _270
REMARK  114  A    between atoms: _270  and  _271
REMARK  115  A    between atoms: _274  and  _276
REMARK  116  A    between atoms: _276  and  _277
REMARK  117  A    between atoms: _281  and  _282
REMARK  118  A    between atoms: _287  and  _289
REMARK  119  A    between atoms: _289  and  _290
REMARK  120  A    between atoms: _289  and  _292
REMARK  121  A    between atoms: _295  and  _297
REMARK  122  A    between atoms: _297  and  _298
REMARK  123  A    between atoms: _297  and  _300
REMARK  124  A    between atoms: _300  and  _301
REMARK  125  A    between atoms: _306  and  _308
REMARK  126  A    between atoms: _308  and  _309
REMARK  127  A    between atoms: _308  and  _311
REMARK  128  A    between atoms: _311  and  _312
REMARK  129  A    between atoms: _318  and  _320
REMARK  130  A    between atoms: _320  and  _321
REMARK  131  A    between atoms: _320  and  _323
REMARK  132  A    between atoms: _323  and  _324
REMARK  133  A    between atoms: _327  and  _329
REMARK  134  A    between atoms: _329  and  _330
REMARK  135  A    between atoms: _333  and  _335
REMARK  136  A    between atoms: _335  and  _336
REMARK  137  A    between atoms: _335  and  _338
REMARK  138  A    between atoms: _338  and  _339
REMARK  139  A    between atoms: _341  and  _343
REMARK  140  A    between atoms: _343  and  _344
REMARK  141  A    between atoms: _343  and  _346
REMARK                            x       y       z     vdW  Elec       q    Type
REMARK                         _______ _______ _______ _____ _____    ______ ____
ROOT
ATOM      1  O   HOH     1      31.854  -6.670  11.299  0.00  0.00    +0.000 OA
ENDROOT
TORSDOF 0
REMARK  Name = ../refined-set-2016/4g8v/4g8v_pocket.pdb
REMARK  141 active torsions:
REMARK  status: ('A' for Active; 'I' for Inactive)
REMARK    1  A    between atoms: _1  and  _3
REMARK    2  A    between atoms: _3  and  _4
REMARK    3  A    between atoms: _3  and  _6
REMARK    4  A    between atoms: _6  and  _7
REMARK    5  A    between atoms: _7  and  _8
REMARK    6  A    between atoms: _11  and  _13
REMARK    7  A    between atoms: _13  and  _14
REMARK    8  A    between atoms: _17  and  _19
REMARK    9  A    between atoms: _19  and  _20
REMARK   10  A    between atoms: _19  and  _22
REMARK   11  A    between atoms: _22  and  _23
REMARK   12  A    between atoms: _23  and  _24
REMARK   13  A    between atoms: _24  and  _25
REMARK   14  A    between atoms: _25  and  _26
REMARK   15  A    between atoms: _30  and  _32
REMARK   16  A    between atoms: _32  and  _33
REMARK   17  A    between atoms: _32  and  _35
REMARK   18  A    between atoms: _35  and  _36
REMARK   19  A    between atoms: _42  and  _44
REMARK   20  A    between atoms: _44  and  _45
REMARK   21  A    between atoms: _44  and  _47
REMARK   22  A    between atoms: _47  and  _48
REMARK   23  A    between atoms: _48  and  _49
REMARK   24  A    between atoms: _49  and  _50
REMARK   25  A    between atoms: _59  and  _61
REMARK   26  A    between atoms: _61  and  _62
REMARK   27  A    between atoms: _61  and  _64
REMARK   28  A    between atoms: _64  and  _65
REMARK   29  A    between atoms: _65  and  _66
REMARK   30  A    between atoms: _71  and  _73
REMARK   31  A    between atoms: _73  and  _74
REMARK   32  A    between atoms: _73  and  _76
REMARK   33  A    between atoms: _76  and  _77
REMARK   34  A    between atoms: _82  and  _84
REMARK   35  A    between atoms: _84  and  _85
REMARK   36  A    between atoms: _84  and  _87
REMARK   37  A    between atoms: _87  and  _88
REMARK   38  A    between atoms: _88  and  _89
REMARK   39  A    between atoms: _91  and  _93
REMARK   40  A    between atoms: _93  and  _94
REMARK   41  A    between atoms: _93  and  _96
REMARK   42  A    between atoms: _96  and  _97
REMARK   43  A    between atoms: _100  and  _102
REMARK   44  A    between atoms: _102  and  _103
REMARK   45  A    between atoms: _102  and  _105
REMARK   46  A    between atoms: _105  and  _106
REMARK   47  A    between atoms: _106  and  _107
REMARK   48  A    between atoms: _107  and  _108
REMARK   49  A    between atoms: _117  and  _119
REMARK   50  A    between atoms: _119  and  _120
REMARK   51  A    between atoms: _119  and  _122
REMARK   52  A    between atoms: _122  and  _123
REMARK   53  A    between atoms: _123  and  _124
REMARK   54  A    between atoms: _124  and  _125
REMARK   55  A    between atoms: _125  and  _126
REMARK   56  A    between atoms: _131  and  _132
REMARK   57  A    between atoms: _137  and  _139
REMARK   58  A    between atoms: _139  and  _140
REMARK   59  A    between atoms: _139  and  _142
REMARK   60  A    between atoms: _145  and  _147
REMARK   61  A    between atoms: _147  and  _148
REMARK   62  A    between atoms: _147  and  _150
REMARK   63  A    between atoms: _150  and  _151
REMARK   64  A    between atoms: _156  and  _158
REMARK   65  A    between atoms: _158  and  _159
REMARK   66  A    between atoms: _158  and  _161
REMARK   67  A    between atoms: _161  and  _162
REMARK   68  A    between atoms: _165  and  _167
REMARK   69  A    between atoms: _167  and  _168
REMARK   70  A    between atoms: _167  and  _170
REMARK   71  A    between atoms: _170  and  _171
REMARK   72  A    between atoms: _177  and  _179
REMARK   73  A    between atoms: _179  and  _180
REMARK   74  A    between atoms: _179  and  _182
REMARK   75  A    between atoms: _182  and  _183
REMARK   76  A    between atoms: _183  and  _184
REMARK   77  A    between atoms: _184  and  _185
REMARK   78  A    between atoms: _185  and  _186
REMARK   79  A    between atoms: _190  and  _192
REMARK   80  A    between atoms: _192  and  _193
REMARK   81  A    between atoms: _192  and  _195
REMARK   82  A    between atoms: _195  and  _196
REMARK   83  A    between atoms: _201  and  _203
REMARK   84  A    between atoms: _203  and  _204
REMARK   85  A    between atoms: _203  and  _206
REMARK   86  A    between atoms: _206  and  _207
REMARK   87  A    between atoms: _210  and  _212
REMARK   88  A    between atoms: _212  and  _213
REMARK   89  A    between atoms: _212  and  _215
REMARK   90  A    between atoms: _215  and  _216
REMARK   91  A    between atoms: _219  and  _221
REMARK   92  A    between atoms: _221  and  _222
REMARK   93  A    between atoms: _221  and  _224
REMARK   94  A    between atoms: _224  and  _225
REMARK   95  A    between atoms: _228  and  _230
REMARK   96  A    between atoms: _230  and  _231
REMARK   97  A    between atoms: _230  and  _233
REMARK   98  A    between atoms: _235  and  _237
REMARK   99  A    between atoms: _237  and  _238
REMARK  100  A    between atoms: _237  and  _240
REMARK  101  A    between atoms: _240  and  _241
REMARK  102  A    between atoms: _241  and  _242
REMARK  103  A    between atoms: _242  and  _243
REMARK  104  A    between atoms: _252  and  _254
REMARK  105  A    between atoms: _254  and  _255
REMARK  106  A    between atoms: _254  and  _257
REMARK  107  A    between atoms: _257  and  _258
REMARK  108  A    between atoms: _258  and  _259
REMARK  109  A    between atoms: _259  and  _260
REMARK  110  A    between atoms: _260  and  _261
REMARK  111  A    between atoms: _265  and  _267
REMARK  112  A    between atoms: _267  and  _268
REMARK  113  A    between atoms: _267  and  _270
REMARK  114  A    between atoms: _270  and  _271
REMARK  115  A    between atoms: _274  and  _276
REMARK  116  A    between atoms: _276  and  _277
REMARK  117  A    between atoms: _281  and  _282
REMARK  118  A    between atoms: _287  and  _289
REMARK  119  A    between atoms: _289  and  _290
REMARK  120  A    between atoms: _289  and  _292
REMARK  121  A    between atoms: _295  and  _297
REMARK  122  A    between atoms: _297  and  _298
REMARK  123  A    between atoms: _297  and  _300
REMARK  124  A    between atoms: _300  and  _301
REMARK  125  A    between atoms: _306  and  _308
REMARK  126  A    between atoms: _308  and  _309
REMARK  127  A    between atoms: _308  and  _311
REMARK  128  A    between atoms: _311  and  _312
REMARK  129  A    between atoms: _318  and  _320
REMARK  130  A    between atoms: _320  and  _321
REMARK  131  A    between atoms: _320  and  _323
REMARK  132  A    between atoms: _323  and  _324
REMARK  133  A    between atoms: _327  and  _329
REMARK  134  A    between atoms: _329  and  _330
REMARK  135  A    between atoms: _333  and  _335
REMARK  136  A    between atoms: _335  and  _336
REMARK  137  A    between atoms: _335  and  _338
REMARK  138  A    between atoms: _338  and  _339
REMARK  139  A    between atoms: _341  and  _343
REMARK  140  A    between atoms: _343  and  _344
REMARK  141  A    between atoms: _343  and  _346
REMARK                            x       y       z     vdW  Elec       q    Type
REMARK                         _______ _______ _______ _____ _____    ______ ____
ROOT
ATOM      1  O   HOH     1      36.750  12.882  14.552  0.00  0.00    +0.000 OA
ENDROOT
TORSDOF 0
REMARK  Name = ../refined-set-2016/4g8v/4g8v_pocket.pdb
REMARK  141 active torsions:
REMARK  status: ('A' for Active; 'I' for Inactive)
REMARK    1  A    between atoms: _1  and  _3
REMARK    2  A    between atoms: _3  and  _4
REMARK    3  A    between atoms: _3  and  _6
REMARK    4  A    between atoms: _6  and  _7
REMARK    5  A    between atoms: _7  and  _8
REMARK    6  A    between atoms: _11  and  _13
REMARK    7  A    between atoms: _13  and  _14
REMARK    8  A    between atoms: _17  and  _19
REMARK    9  A    between atoms: _19  and  _20
REMARK   10  A    between atoms: _19  and  _22
REMARK   11  A    between atoms: _22  and  _23
REMARK   12  A    between atoms: _23  and  _24
REMARK   13  A    between atoms: _24  and  _25
REMARK   14  A    between atoms: _25  and  _26
REMARK   15  A    between atoms: _30  and  _32
REMARK   16  A    between atoms: _32  and  _33
REMARK   17  A    between atoms: _32  and  _35
REMARK   18  A    between atoms: _35  and  _36
REMARK   19  A    between atoms: _42  and  _44
REMARK   20  A    between atoms: _44  and  _45
REMARK   21  A    between atoms: _44  and  _47
REMARK   22  A    between atoms: _47  and  _48
REMARK   23  A    between atoms: _48  and  _49
REMARK   24  A    between atoms: _49  and  _50
REMARK   25  A    between atoms: _59  and  _61
REMARK   26  A    between atoms: _61  and  _62
REMARK   27  A    between atoms: _61  and  _64
REMARK   28  A    between atoms: _64  and  _65
REMARK   29  A    between atoms: _65  and  _66
REMARK   30  A    between atoms: _71  and  _73
REMARK   31  A    between atoms: _73  and  _74
REMARK   32  A    between atoms: _73  and  _76
REMARK   33  A    between atoms: _76  and  _77
REMARK   34  A    between atoms: _82  and  _84
REMARK   35  A    between atoms: _84  and  _85
REMARK   36  A    between atoms: _84  and  _87
REMARK   37  A    between atoms: _87  and  _88
REMARK   38  A    between atoms: _88  and  _89
REMARK   39  A    between atoms: _91  and  _93
REMARK   40  A    between atoms: _93  and  _94
REMARK   41  A    between atoms: _93  and  _96
REMARK   42  A    between atoms: _96  and  _97
REMARK   43  A    between atoms: _100  and  _102
REMARK   44  A    between atoms: _102  and  _103
REMARK   45  A    between atoms: _102  and  _105
REMARK   46  A    between atoms: _105  and  _106
REMARK   47  A    between atoms: _106  and  _107
REMARK   48  A    between atoms: _107  and  _108
REMARK   49  A    between atoms: _117  and  _119
REMARK   50  A    between atoms: _119  and  _120
REMARK   51  A    between atoms: _119  and  _122
REMARK   52  A    between atoms: _122  and  _123
REMARK   53  A    between atoms: _123  and  _124
REMARK   54  A    between atoms: _124  and  _125
REMARK   55  A    between atoms: _125  and  _126
REMARK   56  A    between atoms: _131  and  _132
REMARK   57  A    between atoms: _137  and  _139
REMARK   58  A    between atoms: _139  and  _140
REMARK   59  A    between atoms: _139  and  _142
REMARK   60  A    between atoms: _145  and  _147
REMARK   61  A    between atoms: _147  and  _148
REMARK   62  A    between atoms: _147  and  _150
REMARK   63  A    between atoms: _150  and  _151
REMARK   64  A    between atoms: _156  and  _158
REMARK   65  A    between atoms: _158  and  _159
REMARK   66  A    between atoms: _158  and  _161
REMARK   67  A    between atoms: _161  and  _162
REMARK   68  A    between atoms: _165  and  _167
REMARK   69  A    between atoms: _167  and  _168
REMARK   70  A    between atoms: _167  and  _170
REMARK   71  A    between atoms: _170  and  _171
REMARK   72  A    between atoms: _177  and  _179
REMARK   73  A    between atoms: _179  and  _180
REMARK   74  A    between atoms: _179  and  _182
REMARK   75  A    between atoms: _182  and  _183
REMARK   76  A    between atoms: _183  and  _184
REMARK   77  A    between atoms: _184  and  _185
REMARK   78  A    between atoms: _185  and  _186
REMARK   79  A    between atoms: _190  and  _192
REMARK   80  A    between atoms: _192  and  _193
REMARK   81  A    between atoms: _192  and  _195
REMARK   82  A    between atoms: _195  and  _196
REMARK   83  A    between atoms: _201  and  _203
REMARK   84  A    between atoms: _203  and  _204
REMARK   85  A    between atoms: _203  and  _206
REMARK   86  A    between atoms: _206  and  _207
REMARK   87  A    between atoms: _210  and  _212
REMARK   88  A    between atoms: _212  and  _213
REMARK   89  A    between atoms: _212  and  _215
REMARK   90  A    between atoms: _215  and  _216
REMARK   91  A    between atoms: _219  and  _221
REMARK   92  A    between atoms: _221  and  _222
REMARK   93  A    between atoms: _221  and  _224
REMARK   94  A    between atoms: _224  and  _225
REMARK   95  A    between atoms: _228  and  _230
REMARK   96  A    between atoms: _230  and  _231
REMARK   97  A    between atoms: _230  and  _233
REMARK   98  A    between atoms: _235  and  _237
REMARK   99  A    between atoms: _237  and  _238
REMARK  100  A    between atoms: _237  and  _240
REMARK  101  A    between atoms: _240  and  _241
REMARK  102  A    between atoms: _241  and  _242
REMARK  103  A    between atoms: _242  and  _243
REMARK  104  A    between atoms: _252  and  _254
REMARK  105  A    between atoms: _254  and  _255
REMARK  106  A    between atoms: _254  and  _257
REMARK  107  A    between atoms: _257  and  _258
REMARK  108  A    between atoms: _258  and  _259
REMARK  109  A    between atoms: _259  and  _260
REMARK  110  A    between atoms: _260  and  _261
REMARK  111  A    between atoms: _265  and  _267
REMARK  112  A    between atoms: _267  and  _268
REMARK  113  A    between atoms: _267  and  _270
REMARK  114  A    between atoms: _270  and  _271
REMARK  115  A    between atoms: _274  and  _276
REMARK  116  A    between atoms: _276  and  _277
REMARK  117  A    between atoms: _281  and  _282
REMARK  118  A    between atoms: _287  and  _289
REMARK  119  A    between atoms: _289  and  _290
REMARK  120  A    between atoms: _289  and  _292
REMARK  121  A    between atoms: _295  and  _297
REMARK  122  A    between atoms: _297  and  _298
REMARK  123  A    between atoms: _297  and  _300
REMARK  124  A    between atoms: _300  and  _301
REMARK  125  A    between atoms: _306  and  _308
REMARK  126  A    between atoms: _308  and  _309
REMARK  127  A    between atoms: _308  and  _311
REMARK  128  A    between atoms: _311  and  _312
REMARK  129  A    between atoms: _318  and  _320
REMARK  130  A    between atoms: _320  and  _321
REMARK  131  A    between atoms: _320  and  _323
REMARK  132  A    between atoms: _323  and  _324
REMARK  133  A    between atoms: _327  and  _329
REMARK  134  A    between atoms: _329  and  _330
REMARK  135  A    between atoms: _333  and  _335
REMARK  136  A    between atoms: _335  and  _336
REMARK  137  A    between atoms: _335  and  _338
REMARK  138  A    between atoms: _338  and  _339
REMARK  139  A    between atoms: _341  and  _343
REMARK  140  A    between atoms: _343  and  _344
REMARK  141  A    between atoms: _343  and  _346
REMARK                            x       y       z     vdW  Elec       q    Type
REMARK                         _______ _______ _______ _____ _____    ______ ____
ROOT
ATOM      1  O   HOH     1      42.132   0.802  10.480  0.00  0.00    +0.000 OA
ENDROOT
TORSDOF 0
REMARK  Name = ../refined-set-2016/4g8v/4g8v_pocket.pdb
REMARK  141 active torsions:
REMARK  status: ('A' for Active; 'I' for Inactive)
REMARK    1  A    between atoms: _1  and  _3
REMARK    2  A    between atoms: _3  and  _4
REMARK    3  A    between atoms: _3  and  _6
REMARK    4  A    between atoms: _6  and  _7
REMARK    5  A    between atoms: _7  and  _8
REMARK    6  A    between atoms: _11  and  _13
REMARK    7  A    between atoms: _13  and  _14
REMARK    8  A    between atoms: _17  and  _19
REMARK    9  A    between atoms: _19  and  _20
REMARK   10  A    between atoms: _19  and  _22
REMARK   11  A    between atoms: _22  and  _23
REMARK   12  A    between atoms: _23  and  _24
REMARK   13  A    between atoms: _24  and  _25
REMARK   14  A    between atoms: _25  and  _26
REMARK   15  A    between atoms: _30  and  _32
REMARK   16  A    between atoms: _32  and  _33
REMARK   17  A    between atoms: _32  and  _35
REMARK   18  A    between atoms: _35  and  _36
REMARK   19  A    between atoms: _42  and  _44
REMARK   20  A    between atoms: _44  and  _45
REMARK   21  A    between atoms: _44  and  _47
REMARK   22  A    between atoms: _47  and  _48
REMARK   23  A    between atoms: _48  and  _49
REMARK   24  A    between atoms: _49  and  _50
REMARK   25  A    between atoms: _59  and  _61
REMARK   26  A    between atoms: _61  and  _62
REMARK   27  A    between atoms: _61  and  _64
REMARK   28  A    between atoms: _64  and  _65
REMARK   29  A    between atoms: _65  and  _66
REMARK   30  A    between atoms: _71  and  _73
REMARK   31  A    between atoms: _73  and  _74
REMARK   32  A    between atoms: _73  and  _76
REMARK   33  A    between atoms: _76  and  _77
REMARK   34  A    between atoms: _82  and  _84
REMARK   35  A    between atoms: _84  and  _85
REMARK   36  A    between atoms: _84  and  _87
REMARK   37  A    between atoms: _87  and  _88
REMARK   38  A    between atoms: _88  and  _89
REMARK   39  A    between atoms: _91  and  _93
REMARK   40  A    between atoms: _93  and  _94
REMARK   41  A    between atoms: _93  and  _96
REMARK   42  A    between atoms: _96  and  _97
REMARK   43  A    between atoms: _100  and  _102
REMARK   44  A    between atoms: _102  and  _103
REMARK   45  A    between atoms: _102  and  _105
REMARK   46  A    between atoms: _105  and  _106
REMARK   47  A    between atoms: _106  and  _107
REMARK   48  A    between atoms: _107  and  _108
REMARK   49  A    between atoms: _117  and  _119
REMARK   50  A    between atoms: _119  and  _120
REMARK   51  A    between atoms: _119  and  _122
REMARK   52  A    between atoms: _122  and  _123
REMARK   53  A    between atoms: _123  and  _124
REMARK   54  A    between atoms: _124  and  _125
REMARK   55  A    between atoms: _125  and  _126
REMARK   56  A    between atoms: _131  and  _132
REMARK   57  A    between atoms: _137  and  _139
REMARK   58  A    between atoms: _139  and  _140
REMARK   59  A    between atoms: _139  and  _142
REMARK   60  A    between atoms: _145  and  _147
REMARK   61  A    between atoms: _147  and  _148
REMARK   62  A    between atoms: _147  and  _150
REMARK   63  A    between atoms: _150  and  _151
REMARK   64  A    between atoms: _156  and  _158
REMARK   65  A    between atoms: _158  and  _159
REMARK   66  A    between atoms: _158  and  _161
REMARK   67  A    between atoms: _161  and  _162
REMARK   68  A    between atoms: _165  and  _167
REMARK   69  A    between atoms: _167  and  _168
REMARK   70  A    between atoms: _167  and  _170
REMARK   71  A    between atoms: _170  and  _171
REMARK   72  A    between atoms: _177  and  _179
REMARK   73  A    between atoms: _179  and  _180
REMARK   74  A    between atoms: _179  and  _182
REMARK   75  A    between atoms: _182  and  _183
REMARK   76  A    between atoms: _183  and  _184
REMARK   77  A    between atoms: _184  and  _185
REMARK   78  A    between atoms: _185  and  _186
REMARK   79  A    between atoms: _190  and  _192
REMARK   80  A    between atoms: _192  and  _193
REMARK   81  A    between atoms: _192  and  _195
REMARK   82  A    between atoms: _195  and  _196
REMARK   83  A    between atoms: _201  and  _203
REMARK   84  A    between atoms: _203  and  _204
REMARK   85  A    between atoms: _203  and  _206
REMARK   86  A    between atoms: _206  and  _207
REMARK   87  A    between atoms: _210  and  _212
REMARK   88  A    between atoms: _212  and  _213
REMARK   89  A    between atoms: _212  and  _215
REMARK   90  A    between atoms: _215  and  _216
REMARK   91  A    between atoms: _219  and  _221
REMARK   92  A    between atoms: _221  and  _222
REMARK   93  A    between atoms: _221  and  _224
REMARK   94  A    between atoms: _224  and  _225
REMARK   95  A    between atoms: _228  and  _230
REMARK   96  A    between atoms: _230  and  _231
REMARK   97  A    between atoms: _230  and  _233
REMARK   98  A    between atoms: _235  and  _237
REMARK   99  A    between atoms: _237  and  _238
REMARK  100  A    between atoms: _237  and  _240
REMARK  101  A    between atoms: _240  and  _241
REMARK  102  A    between atoms: _241  and  _242
REMARK  103  A    between atoms: _242  and  _243
REMARK  104  A    between atoms: _252  and  _254
REMARK  105  A    between atoms: _254  and  _255
REMARK  106  A    between atoms: _254  and  _257
REMARK  107  A    between atoms: _257  and  _258
REMARK  108  A    between atoms: _258  and  _259
REMARK  109  A    between atoms: _259  and  _260
REMARK  110  A    between atoms: _260  and  _261
REMARK  111  A    between atoms: _265  and  _267
REMARK  112  A    between atoms: _267  and  _268
REMARK  113  A    between atoms: _267  and  _270
REMARK  114  A    between atoms: _270  and  _271
REMARK  115  A    between atoms: _274  and  _276
REMARK  116  A    between atoms: _276  and  _277
REMARK  117  A    between atoms: _281  and  _282
REMARK  118  A    between atoms: _287  and  _289
REMARK  119  A    between atoms: _289  and  _290
REMARK  120  A    between atoms: _289  and  _292
REMARK  121  A    between atoms: _295  and  _297
REMARK  122  A    between atoms: _297  and  _298
REMARK  123  A    between atoms: _297  and  _300
REMARK  124  A    between atoms: _300  and  _301
REMARK  125  A    between atoms: _306  and  _308
REMARK  126  A    between atoms: _308  and  _309
REMARK  127  A    between atoms: _308  and  _311
REMARK  128  A    between atoms: _311  and  _312
REMARK  129  A    between atoms: _318  and  _320
REMARK  130  A    between atoms: _320  and  _321
REMARK  131  A    between atoms: _320  and  _323
REMARK  132  A    between atoms: _323  and  _324
REMARK  133  A    between atoms: _327  and  _329
REMARK  134  A    between atoms: _329  and  _330
REMARK  135  A    between atoms: _333  and  _335
REMARK  136  A    between atoms: _335  and  _336
REMARK  137  A    between atoms: _335  and  _338
REMARK  138  A    between atoms: _338  and  _339
REMARK  139  A    between atoms: _341  and  _343
REMARK  140  A    between atoms: _343  and  _344
REMARK  141  A    between atoms: _343  and  _346
REMARK                            x       y       z     vdW  Elec       q    Type
REMARK                         _______ _______ _______ _____ _____    ______ ____
ROOT
ATOM      1  O   HOH     1      39.645  11.672   9.613  0.00  0.00    +0.000 OA
ENDROOT
TORSDOF 0
REMARK  Name = ../refined-set-2016/4g8v/4g8v_pocket.pdb
REMARK  141 active torsions:
REMARK  status: ('A' for Active; 'I' for Inactive)
REMARK    1  A    between atoms: _1  and  _3
REMARK    2  A    between atoms: _3  and  _4
REMARK    3  A    between atoms: _3  and  _6
REMARK    4  A    between atoms: _6  and  _7
REMARK    5  A    between atoms: _7  and  _8
REMARK    6  A    between atoms: _11  and  _13
REMARK    7  A    between atoms: _13  and  _14
REMARK    8  A    between atoms: _17  and  _19
REMARK    9  A    between atoms: _19  and  _20
REMARK   10  A    between atoms: _19  and  _22
REMARK   11  A    between atoms: _22  and  _23
REMARK   12  A    between atoms: _23  and  _24
REMARK   13  A    between atoms: _24  and  _25
REMARK   14  A    between atoms: _25  and  _26
REMARK   15  A    between atoms: _30  and  _32
REMARK   16  A    between atoms: _32  and  _33
REMARK   17  A    between atoms: _32  and  _35
REMARK   18  A    between atoms: _35  and  _36
REMARK   19  A    between atoms: _42  and  _44
REMARK   20  A    between atoms: _44  and  _45
REMARK   21  A    between atoms: _44  and  _47
REMARK   22  A    between atoms: _47  and  _48
REMARK   23  A    between atoms: _48  and  _49
REMARK   24  A    between atoms: _49  and  _50
REMARK   25  A    between atoms: _59  and  _61
REMARK   26  A    between atoms: _61  and  _62
REMARK   27  A    between atoms: _61  and  _64
REMARK   28  A    between atoms: _64  and  _65
REMARK   29  A    between atoms: _65  and  _66
REMARK   30  A    between atoms: _71  and  _73
REMARK   31  A    between atoms: _73  and  _74
REMARK   32  A    between atoms: _73  and  _76
REMARK   33  A    between atoms: _76  and  _77
REMARK   34  A    between atoms: _82  and  _84
REMARK   35  A    between atoms: _84  and  _85
REMARK   36  A    between atoms: _84  and  _87
REMARK   37  A    between atoms: _87  and  _88
REMARK   38  A    between atoms: _88  and  _89
REMARK   39  A    between atoms: _91  and  _93
REMARK   40  A    between atoms: _93  and  _94
REMARK   41  A    between atoms: _93  and  _96
REMARK   42  A    between atoms: _96  and  _97
REMARK   43  A    between atoms: _100  and  _102
REMARK   44  A    between atoms: _102  and  _103
REMARK   45  A    between atoms: _102  and  _105
REMARK   46  A    between atoms: _105  and  _106
REMARK   47  A    between atoms: _106  and  _107
REMARK   48  A    between atoms: _107  and  _108
REMARK   49  A    between atoms: _117  and  _119
REMARK   50  A    between atoms: _119  and  _120
REMARK   51  A    between atoms: _119  and  _122
REMARK   52  A    between atoms: _122  and  _123
REMARK   53  A    between atoms: _123  and  _124
REMARK   54  A    between atoms: _124  and  _125
REMARK   55  A    between atoms: _125  and  _126
REMARK   56  A    between atoms: _131  and  _132
REMARK   57  A    between atoms: _137  and  _139
REMARK   58  A    between atoms: _139  and  _140
REMARK   59  A    between atoms: _139  and  _142
REMARK   60  A    between atoms: _145  and  _147
REMARK   61  A    between atoms: _147  and  _148
REMARK   62  A    between atoms: _147  and  _150
REMARK   63  A    between atoms: _150  and  _151
REMARK   64  A    between atoms: _156  and  _158
REMARK   65  A    between atoms: _158  and  _159
REMARK   66  A    between atoms: _158  and  _161
REMARK   67  A    between atoms: _161  and  _162
REMARK   68  A    between atoms: _165  and  _167
REMARK   69  A    between atoms: _167  and  _168
REMARK   70  A    between atoms: _167  and  _170
REMARK   71  A    between atoms: _170  and  _171
REMARK   72  A    between atoms: _177  and  _179
REMARK   73  A    between atoms: _179  and  _180
REMARK   74  A    between atoms: _179  and  _182
REMARK   75  A    between atoms: _182  and  _183
REMARK   76  A    between atoms: _183  and  _184
REMARK   77  A    between atoms: _184  and  _185
REMARK   78  A    between atoms: _185  and  _186
REMARK   79  A    between atoms: _190  and  _192
REMARK   80  A    between atoms: _192  and  _193
REMARK   81  A    between atoms: _192  and  _195
REMARK   82  A    between atoms: _195  and  _196
REMARK   83  A    between atoms: _201  and  _203
REMARK   84  A    between atoms: _203  and  _204
REMARK   85  A    between atoms: _203  and  _206
REMARK   86  A    between atoms: _206  and  _207
REMARK   87  A    between atoms: _210  and  _212
REMARK   88  A    between atoms: _212  and  _213
REMARK   89  A    between atoms: _212  and  _215
REMARK   90  A    between atoms: _215  and  _216
REMARK   91  A    between atoms: _219  and  _221
REMARK   92  A    between atoms: _221  and  _222
REMARK   93  A    between atoms: _221  and  _224
REMARK   94  A    between atoms: _224  and  _225
REMARK   95  A    between atoms: _228  and  _230
REMARK   96  A    between atoms: _230  and  _231
REMARK   97  A    between atoms: _230  and  _233
REMARK   98  A    between atoms: _235  and  _237
REMARK   99  A    between atoms: _237  and  _238
REMARK  100  A    between atoms: _237  and  _240
REMARK  101  A    between atoms: _240  and  _241
REMARK  102  A    between atoms: _241  and  _242
REMARK  103  A    between atoms: _242  and  _243
REMARK  104  A    between atoms: _252  and  _254
REMARK  105  A    between atoms: _254  and  _255
REMARK  106  A    between atoms: _254  and  _257
REMARK  107  A    between atoms: _257  and  _258
REMARK  108  A    between atoms: _258  and  _259
REMARK  109  A    between atoms: _259  and  _260
REMARK  110  A    between atoms: _260  and  _261
REMARK  111  A    between atoms: _265  and  _267
REMARK  112  A    between atoms: _267  and  _268
REMARK  113  A    between atoms: _267  and  _270
REMARK  114  A    between atoms: _270  and  _271
REMARK  115  A    between atoms: _274  and  _276
REMARK  116  A    between atoms: _276  and  _277
REMARK  117  A    between atoms: _281  and  _282
REMARK  118  A    between atoms: _287  and  _289
REMARK  119  A    between atoms: _289  and  _290
REMARK  120  A    between atoms: _289  and  _292
REMARK  121  A    between atoms: _295  and  _297
REMARK  122  A    between atoms: _297  and  _298
REMARK  123  A    between atoms: _297  and  _300
REMARK  124  A    between atoms: _300  and  _301
REMARK  125  A    between atoms: _306  and  _308
REMARK  126  A    between atoms: _308  and  _309
REMARK  127  A    between atoms: _308  and  _311
REMARK  128  A    between atoms: _311  and  _312
REMARK  129  A    between atoms: _318  and  _320
REMARK  130  A    between atoms: _320  and  _321
REMARK  131  A    between atoms: _320  and  _323
REMARK  132  A    between atoms: _323  and  _324
REMARK  133  A    between atoms: _327  and  _329
REMARK  134  A    between atoms: _329  and  _330
REMARK  135  A    between atoms: _333  and  _335
REMARK  136  A    between atoms: _335  and  _336
REMARK  137  A    between atoms: _335  and  _338
REMARK  138  A    between atoms: _338  and  _339
REMARK  139  A    between atoms: _341  and  _343
REMARK  140  A    between atoms: _343  and  _344
REMARK  141  A    between atoms: _343  and  _346
REMARK                            x       y       z     vdW  Elec       q    Type
REMARK                         _______ _______ _______ _____ _____    ______ ____
ROOT
ATOM      1  O   HOH     1      38.968   3.289  17.497  0.00  0.00    +0.000 OA
ENDROOT
TORSDOF 0
REMARK  Name = ../refined-set-2016/4g8v/4g8v_pocket.pdb
REMARK  141 active torsions:
REMARK  status: ('A' for Active; 'I' for Inactive)
REMARK    1  A    between atoms: _1  and  _3
REMARK    2  A    between atoms: _3  and  _4
REMARK    3  A    between atoms: _3  and  _6
REMARK    4  A    between atoms: _6  and  _7
REMARK    5  A    between atoms: _7  and  _8
REMARK    6  A    between atoms: _11  and  _13
REMARK    7  A    between atoms: _13  and  _14
REMARK    8  A    between atoms: _17  and  _19
REMARK    9  A    between atoms: _19  and  _20
REMARK   10  A    between atoms: _19  and  _22
REMARK   11  A    between atoms: _22  and  _23
REMARK   12  A    between atoms: _23  and  _24
REMARK   13  A    between atoms: _24  and  _25
REMARK   14  A    between atoms: _25  and  _26
REMARK   15  A    between atoms: _30  and  _32
REMARK   16  A    between atoms: _32  and  _33
REMARK   17  A    between atoms: _32  and  _35
REMARK   18  A    between atoms: _35  and  _36
REMARK   19  A    between atoms: _42  and  _44
REMARK   20  A    between atoms: _44  and  _45
REMARK   21  A    between atoms: _44  and  _47
REMARK   22  A    between atoms: _47  and  _48
REMARK   23  A    between atoms: _48  and  _49
REMARK   24  A    between atoms: _49  and  _50
REMARK   25  A    between atoms: _59  and  _61
REMARK   26  A    between atoms: _61  and  _62
REMARK   27  A    between atoms: _61  and  _64
REMARK   28  A    between atoms: _64  and  _65
REMARK   29  A    between atoms: _65  and  _66
REMARK   30  A    between atoms: _71  and  _73
REMARK   31  A    between atoms: _73  and  _74
REMARK   32  A    between atoms: _73  and  _76
REMARK   33  A    between atoms: _76  and  _77
REMARK   34  A    between atoms: _82  and  _84
REMARK   35  A    between atoms: _84  and  _85
REMARK   36  A    between atoms: _84  and  _87
REMARK   37  A    between atoms: _87  and  _88
REMARK   38  A    between atoms: _88  and  _89
REMARK   39  A    between atoms: _91  and  _93
REMARK   40  A    between atoms: _93  and  _94
REMARK   41  A    between atoms: _93  and  _96
REMARK   42  A    between atoms: _96  and  _97
REMARK   43  A    between atoms: _100  and  _102
REMARK   44  A    between atoms: _102  and  _103
REMARK   45  A    between atoms: _102  and  _105
REMARK   46  A    between atoms: _105  and  _106
REMARK   47  A    between atoms: _106  and  _107
REMARK   48  A    between atoms: _107  and  _108
REMARK   49  A    between atoms: _117  and  _119
REMARK   50  A    between atoms: _119  and  _120
REMARK   51  A    between atoms: _119  and  _122
REMARK   52  A    between atoms: _122  and  _123
REMARK   53  A    between atoms: _123  and  _124
REMARK   54  A    between atoms: _124  and  _125
REMARK   55  A    between atoms: _125  and  _126
REMARK   56  A    between atoms: _131  and  _132
REMARK   57  A    between atoms: _137  and  _139
REMARK   58  A    between atoms: _139  and  _140
REMARK   59  A    between atoms: _139  and  _142
REMARK   60  A    between atoms: _145  and  _147
REMARK   61  A    between atoms: _147  and  _148
REMARK   62  A    between atoms: _147  and  _150
REMARK   63  A    between atoms: _150  and  _151
REMARK   64  A    between atoms: _156  and  _158
REMARK   65  A    between atoms: _158  and  _159
REMARK   66  A    between atoms: _158  and  _161
REMARK   67  A    between atoms: _161  and  _162
REMARK   68  A    between atoms: _165  and  _167
REMARK   69  A    between atoms: _167  and  _168
REMARK   70  A    between atoms: _167  and  _170
REMARK   71  A    between atoms: _170  and  _171
REMARK   72  A    between atoms: _177  and  _179
REMARK   73  A    between atoms: _179  and  _180
REMARK   74  A    between atoms: _179  and  _182
REMARK   75  A    between atoms: _182  and  _183
REMARK   76  A    between atoms: _183  and  _184
REMARK   77  A    between atoms: _184  and  _185
REMARK   78  A    between atoms: _185  and  _186
REMARK   79  A    between atoms: _190  and  _192
REMARK   80  A    between atoms: _192  and  _193
REMARK   81  A    between atoms: _192  and  _195
REMARK   82  A    between atoms: _195  and  _196
REMARK   83  A    between atoms: _201  and  _203
REMARK   84  A    between atoms: _203  and  _204
REMARK   85  A    between atoms: _203  and  _206
REMARK   86  A    between atoms: _206  and  _207
REMARK   87  A    between atoms: _210  and  _212
REMARK   88  A    between atoms: _212  and  _213
REMARK   89  A    between atoms: _212  and  _215
REMARK   90  A    between atoms: _215  and  _216
REMARK   91  A    between atoms: _219  and  _221
REMARK   92  A    between atoms: _221  and  _222
REMARK   93  A    between atoms: _221  and  _224
REMARK   94  A    between atoms: _224  and  _225
REMARK   95  A    between atoms: _228  and  _230
REMARK   96  A    between atoms: _230  and  _231
REMARK   97  A    between atoms: _230  and  _233
REMARK   98  A    between atoms: _235  and  _237
REMARK   99  A    between atoms: _237  and  _238
REMARK  100  A    between atoms: _237  and  _240
REMARK  101  A    between atoms: _240  and  _241
REMARK  102  A    between atoms: _241  and  _242
REMARK  103  A    between atoms: _242  and  _243
REMARK  104  A    between atoms: _252  and  _254
REMARK  105  A    between atoms: _254  and  _255
REMARK  106  A    between atoms: _254  and  _257
REMARK  107  A    between atoms: _257  and  _258
REMARK  108  A    between atoms: _258  and  _259
REMARK  109  A    between atoms: _259  and  _260
REMARK  110  A    between atoms: _260  and  _261
REMARK  111  A    between atoms: _265  and  _267
REMARK  112  A    between atoms: _267  and  _268
REMARK  113  A    between atoms: _267  and  _270
REMARK  114  A    between atoms: _270  and  _271
REMARK  115  A    between atoms: _274  and  _276
REMARK  116  A    between atoms: _276  and  _277
REMARK  117  A    between atoms: _281  and  _282
REMARK  118  A    between atoms: _287  and  _289
REMARK  119  A    between atoms: _289  and  _290
REMARK  120  A    between atoms: _289  and  _292
REMARK  121  A    between atoms: _295  and  _297
REMARK  122  A    between atoms: _297  and  _298
REMARK  123  A    between atoms: _297  and  _300
REMARK  124  A    between atoms: _300  and  _301
REMARK  125  A    between atoms: _306  and  _308
REMARK  126  A    between atoms: _308  and  _309
REMARK  127  A    between atoms: _308  and  _311
REMARK  128  A    between atoms: _311  and  _312
REMARK  129  A    between atoms: _318  and  _320
REMARK  130  A    between atoms: _320  and  _321
REMARK  131  A    between atoms: _320  and  _323
REMARK  132  A    between atoms: _323  and  _324
REMARK  133  A    between atoms: _327  and  _329
REMARK  134  A    between atoms: _329  and  _330
REMARK  135  A    between atoms: _333  and  _335
REMARK  136  A    between atoms: _335  and  _336
REMARK  137  A    between atoms: _335  and  _338
REMARK  138  A    between atoms: _338  and  _339
REMARK  139  A    between atoms: _341  and  _343
REMARK  140  A    between atoms: _343  and  _344
REMARK  141  A    between atoms: _343  and  _346
REMARK                            x       y       z     vdW  Elec       q    Type
REMARK                         _______ _______ _______ _____ _____    ______ ____
ROOT
ATOM      1  O   HOH     1      31.503 -11.558  13.620  0.00  0.00    +0.000 OA
ENDROOT
TORSDOF 0
REMARK  Name = ../refined-set-2016/4g8v/4g8v_pocket.pdb
REMARK  141 active torsions:
REMARK  status: ('A' for Active; 'I' for Inactive)
REMARK    1  A    between atoms: _1  and  _3
REMARK    2  A    between atoms: _3  and  _4
REMARK    3  A    between atoms: _3  and  _6
REMARK    4  A    between atoms: _6  and  _7
REMARK    5  A    between atoms: _7  and  _8
REMARK    6  A    between atoms: _11  and  _13
REMARK    7  A    between atoms: _13  and  _14
REMARK    8  A    between atoms: _17  and  _19
REMARK    9  A    between atoms: _19  and  _20
REMARK   10  A    between atoms: _19  and  _22
REMARK   11  A    between atoms: _22  and  _23
REMARK   12  A    between atoms: _23  and  _24
REMARK   13  A    between atoms: _24  and  _25
REMARK   14  A    between atoms: _25  and  _26
REMARK   15  A    between atoms: _30  and  _32
REMARK   16  A    between atoms: _32  and  _33
REMARK   17  A    between atoms: _32  and  _35
REMARK   18  A    between atoms: _35  and  _36
REMARK   19  A    between atoms: _42  and  _44
REMARK   20  A    between atoms: _44  and  _45
REMARK   21  A    between atoms: _44  and  _47
REMARK   22  A    between atoms: _47  and  _48
REMARK   23  A    between atoms: _48  and  _49
REMARK   24  A    between atoms: _49  and  _50
REMARK   25  A    between atoms: _59  and  _61
REMARK   26  A    between atoms: _61  and  _62
REMARK   27  A    between atoms: _61  and  _64
REMARK   28  A    between atoms: _64  and  _65
REMARK   29  A    between atoms: _65  and  _66
REMARK   30  A    between atoms: _71  and  _73
REMARK   31  A    between atoms: _73  and  _74
REMARK   32  A    between atoms: _73  and  _76
REMARK   33  A    between atoms: _76  and  _77
REMARK   34  A    between atoms: _82  and  _84
REMARK   35  A    between atoms: _84  and  _85
REMARK   36  A    between atoms: _84  and  _87
REMARK   37  A    between atoms: _87  and  _88
REMARK   38  A    between atoms: _88  and  _89
REMARK   39  A    between atoms: _91  and  _93
REMARK   40  A    between atoms: _93  and  _94
REMARK   41  A    between atoms: _93  and  _96
REMARK   42  A    between atoms: _96  and  _97
REMARK   43  A    between atoms: _100  and  _102
REMARK   44  A    between atoms: _102  and  _103
REMARK   45  A    between atoms: _102  and  _105
REMARK   46  A    between atoms: _105  and  _106
REMARK   47  A    between atoms: _106  and  _107
REMARK   48  A    between atoms: _107  and  _108
REMARK   49  A    between atoms: _117  and  _119
REMARK   50  A    between atoms: _119  and  _120
REMARK   51  A    between atoms: _119  and  _122
REMARK   52  A    between atoms: _122  and  _123
REMARK   53  A    between atoms: _123  and  _124
REMARK   54  A    between atoms: _124  and  _125
REMARK   55  A    between atoms: _125  and  _126
REMARK   56  A    between atoms: _131  and  _132
REMARK   57  A    between atoms: _137  and  _139
REMARK   58  A    between atoms: _139  and  _140
REMARK   59  A    between atoms: _139  and  _142
REMARK   60  A    between atoms: _145  and  _147
REMARK   61  A    between atoms: _147  and  _148
REMARK   62  A    between atoms: _147  and  _150
REMARK   63  A    between atoms: _150  and  _151
REMARK   64  A    between atoms: _156  and  _158
REMARK   65  A    between atoms: _158  and  _159
REMARK   66  A    between atoms: _158  and  _161
REMARK   67  A    between atoms: _161  and  _162
REMARK   68  A    between atoms: _165  and  _167
REMARK   69  A    between atoms: _167  and  _168
REMARK   70  A    between atoms: _167  and  _170
REMARK   71  A    between atoms: _170  and  _171
REMARK   72  A    between atoms: _177  and  _179
REMARK   73  A    between atoms: _179  and  _180
REMARK   74  A    between atoms: _179  and  _182
REMARK   75  A    between atoms: _182  and  _183
REMARK   76  A    between atoms: _183  and  _184
REMARK   77  A    between atoms: _184  and  _185
REMARK   78  A    between atoms: _185  and  _186
REMARK   79  A    between atoms: _190  and  _192
REMARK   80  A    between atoms: _192  and  _193
REMARK   81  A    between atoms: _192  and  _195
REMARK   82  A    between atoms: _195  and  _196
REMARK   83  A    between atoms: _201  and  _203
REMARK   84  A    between atoms: _203  and  _204
REMARK   85  A    between atoms: _203  and  _206
REMARK   86  A    between atoms: _206  and  _207
REMARK   87  A    between atoms: _210  and  _212
REMARK   88  A    between atoms: _212  and  _213
REMARK   89  A    between atoms: _212  and  _215
REMARK   90  A    between atoms: _215  and  _216
REMARK   91  A    between atoms: _219  and  _221
REMARK   92  A    between atoms: _221  and  _222
REMARK   93  A    between atoms: _221  and  _224
REMARK   94  A    between atoms: _224  and  _225
REMARK   95  A    between atoms: _228  and  _230
REMARK   96  A    between atoms: _230  and  _231
REMARK   97  A    between atoms: _230  and  _233
REMARK   98  A    between atoms: _235  and  _237
REMARK   99  A    between atoms: _237  and  _238
REMARK  100  A    between atoms: _237  and  _240
REMARK  101  A    between atoms: _240  and  _241
REMARK  102  A    between atoms: _241  and  _242
REMARK  103  A    between atoms: _242  and  _243
REMARK  104  A    between atoms: _252  and  _254
REMARK  105  A    between atoms: _254  and  _255
REMARK  106  A    between atoms: _254  and  _257
REMARK  107  A    between atoms: _257  and  _258
REMARK  108  A    between atoms: _258  and  _259
REMARK  109  A    between atoms: _259  and  _260
REMARK  110  A    between atoms: _260  and  _261
REMARK  111  A    between atoms: _265  and  _267
REMARK  112  A    between atoms: _267  and  _268
REMARK  113  A    between atoms: _267  and  _270
REMARK  114  A    between atoms: _270  and  _271
REMARK  115  A    between atoms: _274  and  _276
REMARK  116  A    between atoms: _276  and  _277
REMARK  117  A    between atoms: _281  and  _282
REMARK  118  A    between atoms: _287  and  _289
REMARK  119  A    between atoms: _289  and  _290
REMARK  120  A    between atoms: _289  and  _292
REMARK  121  A    between atoms: _295  and  _297
REMARK  122  A    between atoms: _297  and  _298
REMARK  123  A    between atoms: _297  and  _300
REMARK  124  A    between atoms: _300  and  _301
REMARK  125  A    between atoms: _306  and  _308
REMARK  126  A    between atoms: _308  and  _309
REMARK  127  A    between atoms: _308  and  _311
REMARK  128  A    between atoms: _311  and  _312
REMARK  129  A    between atoms: _318  and  _320
REMARK  130  A    between atoms: _320  and  _321
REMARK  131  A    between atoms: _320  and  _323
REMARK  132  A    between atoms: _323  and  _324
REMARK  133  A    between atoms: _327  and  _329
REMARK  134  A    between atoms: _329  and  _330
REMARK  135  A    between atoms: _333  and  _335
REMARK  136  A    between atoms: _335  and  _336
REMARK  137  A    between atoms: _335  and  _338
REMARK  138  A    between atoms: _338  and  _339
REMARK  139  A    between atoms: _341  and  _343
REMARK  140  A    between atoms: _343  and  _344
REMARK  141  A    between atoms: _343  and  _346
REMARK                            x       y       z     vdW  Elec       q    Type
REMARK                         _______ _______ _______ _____ _____    ______ ____
ROOT
ATOM      1  O   HOH     1      36.327  10.125  15.293  0.00  0.00    +0.000 OA
ENDROOT
TORSDOF 0
REMARK  Name = ../refined-set-2016/4g8v/4g8v_pocket.pdb
REMARK  141 active torsions:
REMARK  status: ('A' for Active; 'I' for Inactive)
REMARK    1  A    between atoms: _1  and  _3
REMARK    2  A    between atoms: _3  and  _4
REMARK    3  A    between atoms: _3  and  _6
REMARK    4  A    between atoms: _6  and  _7
REMARK    5  A    between atoms: _7  and  _8
REMARK    6  A    between atoms: _11  and  _13
REMARK    7  A    between atoms: _13  and  _14
REMARK    8  A    between atoms: _17  and  _19
REMARK    9  A    between atoms: _19  and  _20
REMARK   10  A    between atoms: _19  and  _22
REMARK   11  A    between atoms: _22  and  _23
REMARK   12  A    between atoms: _23  and  _24
REMARK   13  A    between atoms: _24  and  _25
REMARK   14  A    between atoms: _25  and  _26
REMARK   15  A    between atoms: _30  and  _32
REMARK   16  A    between atoms: _32  and  _33
REMARK   17  A    between atoms: _32  and  _35
REMARK   18  A    between atoms: _35  and  _36
REMARK   19  A    between atoms: _42  and  _44
REMARK   20  A    between atoms: _44  and  _45
REMARK   21  A    between atoms: _44  and  _47
REMARK   22  A    between atoms: _47  and  _48
REMARK   23  A    between atoms: _48  and  _49
REMARK   24  A    between atoms: _49  and  _50
REMARK   25  A    between atoms: _59  and  _61
REMARK   26  A    between atoms: _61  and  _62
REMARK   27  A    between atoms: _61  and  _64
REMARK   28  A    between atoms: _64  and  _65
REMARK   29  A    between atoms: _65  and  _66
REMARK   30  A    between atoms: _71  and  _73
REMARK   31  A    between atoms: _73  and  _74
REMARK   32  A    between atoms: _73  and  _76
REMARK   33  A    between atoms: _76  and  _77
REMARK   34  A    between atoms: _82  and  _84
REMARK   35  A    between atoms: _84  and  _85
REMARK   36  A    between atoms: _84  and  _87
REMARK   37  A    between atoms: _87  and  _88
REMARK   38  A    between atoms: _88  and  _89
REMARK   39  A    between atoms: _91  and  _93
REMARK   40  A    between atoms: _93  and  _94
REMARK   41  A    between atoms: _93  and  _96
REMARK   42  A    between atoms: _96  and  _97
REMARK   43  A    between atoms: _100  and  _102
REMARK   44  A    between atoms: _102  and  _103
REMARK   45  A    between atoms: _102  and  _105
REMARK   46  A    between atoms: _105  and  _106
REMARK   47  A    between atoms: _106  and  _107
REMARK   48  A    between atoms: _107  and  _108
REMARK   49  A    between atoms: _117  and  _119
REMARK   50  A    between atoms: _119  and  _120
REMARK   51  A    between atoms: _119  and  _122
REMARK   52  A    between atoms: _122  and  _123
REMARK   53  A    between atoms: _123  and  _124
REMARK   54  A    between atoms: _124  and  _125
REMARK   55  A    between atoms: _125  and  _126
REMARK   56  A    between atoms: _131  and  _132
REMARK   57  A    between atoms: _137  and  _139
REMARK   58  A    between atoms: _139  and  _140
REMARK   59  A    between atoms: _139  and  _142
REMARK   60  A    between atoms: _145  and  _147
REMARK   61  A    between atoms: _147  and  _148
REMARK   62  A    between atoms: _147  and  _150
REMARK   63  A    between atoms: _150  and  _151
REMARK   64  A    between atoms: _156  and  _158
REMARK   65  A    between atoms: _158  and  _159
REMARK   66  A    between atoms: _158  and  _161
REMARK   67  A    between atoms: _161  and  _162
REMARK   68  A    between atoms: _165  and  _167
REMARK   69  A    between atoms: _167  and  _168
REMARK   70  A    between atoms: _167  and  _170
REMARK   71  A    between atoms: _170  and  _171
REMARK   72  A    between atoms: _177  and  _179
REMARK   73  A    between atoms: _179  and  _180
REMARK   74  A    between atoms: _179  and  _182
REMARK   75  A    between atoms: _182  and  _183
REMARK   76  A    between atoms: _183  and  _184
REMARK   77  A    between atoms: _184  and  _185
REMARK   78  A    between atoms: _185  and  _186
REMARK   79  A    between atoms: _190  and  _192
REMARK   80  A    between atoms: _192  and  _193
REMARK   81  A    between atoms: _192  and  _195
REMARK   82  A    between atoms: _195  and  _196
REMARK   83  A    between atoms: _201  and  _203
REMARK   84  A    between atoms: _203  and  _204
REMARK   85  A    between atoms: _203  and  _206
REMARK   86  A    between atoms: _206  and  _207
REMARK   87  A    between atoms: _210  and  _212
REMARK   88  A    between atoms: _212  and  _213
REMARK   89  A    between atoms: _212  and  _215
REMARK   90  A    between atoms: _215  and  _216
REMARK   91  A    between atoms: _219  and  _221
REMARK   92  A    between atoms: _221  and  _222
REMARK   93  A    between atoms: _221  and  _224
REMARK   94  A    between atoms: _224  and  _225
REMARK   95  A    between atoms: _228  and  _230
REMARK   96  A    between atoms: _230  and  _231
REMARK   97  A    between atoms: _230  and  _233
REMARK   98  A    between atoms: _235  and  _237
REMARK   99  A    between atoms: _237  and  _238
REMARK  100  A    between atoms: _237  and  _240
REMARK  101  A    between atoms: _240  and  _241
REMARK  102  A    between atoms: _241  and  _242
REMARK  103  A    between atoms: _242  and  _243
REMARK  104  A    between atoms: _252  and  _254
REMARK  105  A    between atoms: _254  and  _255
REMARK  106  A    between atoms: _254  and  _257
REMARK  107  A    between atoms: _257  and  _258
REMARK  108  A    between atoms: _258  and  _259
REMARK  109  A    between atoms: _259  and  _260
REMARK  110  A    between atoms: _260  and  _261
REMARK  111  A    between atoms: _265  and  _267
REMARK  112  A    between atoms: _267  and  _268
REMARK  113  A    between atoms: _267  and  _270
REMARK  114  A    between atoms: _270  and  _271
REMARK  115  A    between atoms: _274  and  _276
REMARK  116  A    between atoms: _276  and  _277
REMARK  117  A    between atoms: _281  and  _282
REMARK  118  A    between atoms: _287  and  _289
REMARK  119  A    between atoms: _289  and  _290
REMARK  120  A    between atoms: _289  and  _292
REMARK  121  A    between atoms: _295  and  _297
REMARK  122  A    between atoms: _297  and  _298
REMARK  123  A    between atoms: _297  and  _300
REMARK  124  A    between atoms: _300  and  _301
REMARK  125  A    between atoms: _306  and  _308
REMARK  126  A    between atoms: _308  and  _309
REMARK  127  A    between atoms: _308  and  _311
REMARK  128  A    between atoms: _311  and  _312
REMARK  129  A    between atoms: _318  and  _320
REMARK  130  A    between atoms: _320  and  _321
REMARK  131  A    between atoms: _320  and  _323
REMARK  132  A    between atoms: _323  and  _324
REMARK  133  A    between atoms: _327  and  _329
REMARK  134  A    between atoms: _329  and  _330
REMARK  135  A    between atoms: _333  and  _335
REMARK  136  A    between atoms: _335  and  _336
REMARK  137  A    between atoms: _335  and  _338
REMARK  138  A    between atoms: _338  and  _339
REMARK  139  A    between atoms: _341  and  _343
REMARK  140  A    between atoms: _343  and  _344
REMARK  141  A    between atoms: _343  and  _346
REMARK                            x       y       z     vdW  Elec       q    Type
REMARK                         _______ _______ _______ _____ _____    ______ ____
ROOT
ATOM      1  O   HOH     1      36.409   2.113  21.149  0.00  0.00    +0.000 OA
ENDROOT
TORSDOF 0
REMARK  Name = ../refined-set-2016/4g8v/4g8v_pocket.pdb
REMARK  141 active torsions:
REMARK  status: ('A' for Active; 'I' for Inactive)
REMARK    1  A    between atoms: _1  and  _3
REMARK    2  A    between atoms: _3  and  _4
REMARK    3  A    between atoms: _3  and  _6
REMARK    4  A    between atoms: _6  and  _7
REMARK    5  A    between atoms: _7  and  _8
REMARK    6  A    between atoms: _11  and  _13
REMARK    7  A    between atoms: _13  and  _14
REMARK    8  A    between atoms: _17  and  _19
REMARK    9  A    between atoms: _19  and  _20
REMARK   10  A    between atoms: _19  and  _22
REMARK   11  A    between atoms: _22  and  _23
REMARK   12  A    between atoms: _23  and  _24
REMARK   13  A    between atoms: _24  and  _25
REMARK   14  A    between atoms: _25  and  _26
REMARK   15  A    between atoms: _30  and  _32
REMARK   16  A    between atoms: _32  and  _33
REMARK   17  A    between atoms: _32  and  _35
REMARK   18  A    between atoms: _35  and  _36
REMARK   19  A    between atoms: _42  and  _44
REMARK   20  A    between atoms: _44  and  _45
REMARK   21  A    between atoms: _44  and  _47
REMARK   22  A    between atoms: _47  and  _48
REMARK   23  A    between atoms: _48  and  _49
REMARK   24  A    between atoms: _49  and  _50
REMARK   25  A    between atoms: _59  and  _61
REMARK   26  A    between atoms: _61  and  _62
REMARK   27  A    between atoms: _61  and  _64
REMARK   28  A    between atoms: _64  and  _65
REMARK   29  A    between atoms: _65  and  _66
REMARK   30  A    between atoms: _71  and  _73
REMARK   31  A    between atoms: _73  and  _74
REMARK   32  A    between atoms: _73  and  _76
REMARK   33  A    between atoms: _76  and  _77
REMARK   34  A    between atoms: _82  and  _84
REMARK   35  A    between atoms: _84  and  _85
REMARK   36  A    between atoms: _84  and  _87
REMARK   37  A    between atoms: _87  and  _88
REMARK   38  A    between atoms: _88  and  _89
REMARK   39  A    between atoms: _91  and  _93
REMARK   40  A    between atoms: _93  and  _94
REMARK   41  A    between atoms: _93  and  _96
REMARK   42  A    between atoms: _96  and  _97
REMARK   43  A    between atoms: _100  and  _102
REMARK   44  A    between atoms: _102  and  _103
REMARK   45  A    between atoms: _102  and  _105
REMARK   46  A    between atoms: _105  and  _106
REMARK   47  A    between atoms: _106  and  _107
REMARK   48  A    between atoms: _107  and  _108
REMARK   49  A    between atoms: _117  and  _119
REMARK   50  A    between atoms: _119  and  _120
REMARK   51  A    between atoms: _119  and  _122
REMARK   52  A    between atoms: _122  and  _123
REMARK   53  A    between atoms: _123  and  _124
REMARK   54  A    between atoms: _124  and  _125
REMARK   55  A    between atoms: _125  and  _126
REMARK   56  A    between atoms: _131  and  _132
REMARK   57  A    between atoms: _137  and  _139
REMARK   58  A    between atoms: _139  and  _140
REMARK   59  A    between atoms: _139  and  _142
REMARK   60  A    between atoms: _145  and  _147
REMARK   61  A    between atoms: _147  and  _148
REMARK   62  A    between atoms: _147  and  _150
REMARK   63  A    between atoms: _150  and  _151
REMARK   64  A    between atoms: _156  and  _158
REMARK   65  A    between atoms: _158  and  _159
REMARK   66  A    between atoms: _158  and  _161
REMARK   67  A    between atoms: _161  and  _162
REMARK   68  A    between atoms: _165  and  _167
REMARK   69  A    between atoms: _167  and  _168
REMARK   70  A    between atoms: _167  and  _170
REMARK   71  A    between atoms: _170  and  _171
REMARK   72  A    between atoms: _177  and  _179
REMARK   73  A    between atoms: _179  and  _180
REMARK   74  A    between atoms: _179  and  _182
REMARK   75  A    between atoms: _182  and  _183
REMARK   76  A    between atoms: _183  and  _184
REMARK   77  A    between atoms: _184  and  _185
REMARK   78  A    between atoms: _185  and  _186
REMARK   79  A    between atoms: _190  and  _192
REMARK   80  A    between atoms: _192  and  _193
REMARK   81  A    between atoms: _192  and  _195
REMARK   82  A    between atoms: _195  and  _196
REMARK   83  A    between atoms: _201  and  _203
REMARK   84  A    between atoms: _203  and  _204
REMARK   85  A    between atoms: _203  and  _206
REMARK   86  A    between atoms: _206  and  _207
REMARK   87  A    between atoms: _210  and  _212
REMARK   88  A    between atoms: _212  and  _213
REMARK   89  A    between atoms: _212  and  _215
REMARK   90  A    between atoms: _215  and  _216
REMARK   91  A    between atoms: _219  and  _221
REMARK   92  A    between atoms: _221  and  _222
REMARK   93  A    between atoms: _221  and  _224
REMARK   94  A    between atoms: _224  and  _225
REMARK   95  A    between atoms: _228  and  _230
REMARK   96  A    between atoms: _230  and  _231
REMARK   97  A    between atoms: _230  and  _233
REMARK   98  A    between atoms: _235  and  _237
REMARK   99  A    between atoms: _237  and  _238
REMARK  100  A    between atoms: _237  and  _240
REMARK  101  A    between atoms: _240  and  _241
REMARK  102  A    between atoms: _241  and  _242
REMARK  103  A    between atoms: _242  and  _243
REMARK  104  A    between atoms: _252  and  _254
REMARK  105  A    between atoms: _254  and  _255
REMARK  106  A    between atoms: _254  and  _257
REMARK  107  A    between atoms: _257  and  _258
REMARK  108  A    between atoms: _258  and  _259
REMARK  109  A    between atoms: _259  and  _260
REMARK  110  A    between atoms: _260  and  _261
REMARK  111  A    between atoms: _265  and  _267
REMARK  112  A    between atoms: _267  and  _268
REMARK  113  A    between atoms: _267  and  _270
REMARK  114  A    between atoms: _270  and  _271
REMARK  115  A    between atoms: _274  and  _276
REMARK  116  A    between atoms: _276  and  _277
REMARK  117  A    between atoms: _281  and  _282
REMARK  118  A    between atoms: _287  and  _289
REMARK  119  A    between atoms: _289  and  _290
REMARK  120  A    between atoms: _289  and  _292
REMARK  121  A    between atoms: _295  and  _297
REMARK  122  A    between atoms: _297  and  _298
REMARK  123  A    between atoms: _297  and  _300
REMARK  124  A    between atoms: _300  and  _301
REMARK  125  A    between atoms: _306  and  _308
REMARK  126  A    between atoms: _308  and  _309
REMARK  127  A    between atoms: _308  and  _311
REMARK  128  A    between atoms: _311  and  _312
REMARK  129  A    between atoms: _318  and  _320
REMARK  130  A    between atoms: _320  and  _321
REMARK  131  A    between atoms: _320  and  _323
REMARK  132  A    between atoms: _323  and  _324
REMARK  133  A    between atoms: _327  and  _329
REMARK  134  A    between atoms: _329  and  _330
REMARK  135  A    between atoms: _333  and  _335
REMARK  136  A    between atoms: _335  and  _336
REMARK  137  A    between atoms: _335  and  _338
REMARK  138  A    between atoms: _338  and  _339
REMARK  139  A    between atoms: _341  and  _343
REMARK  140  A    between atoms: _343  and  _344
REMARK  141  A    between atoms: _343  and  _346
REMARK                            x       y       z     vdW  Elec       q    Type
REMARK                         _______ _______ _______ _____ _____    ______ ____
ROOT
ATOM      1  O   HOH     1      39.588  -0.841  19.616  0.00  0.00    +0.000 OA
ENDROOT
TORSDOF 0
REMARK  Name = ../refined-set-2016/4g8v/4g8v_pocket.pdb
REMARK  141 active torsions:
REMARK  status: ('A' for Active; 'I' for Inactive)
REMARK    1  A    between atoms: _1  and  _3
REMARK    2  A    between atoms: _3  and  _4
REMARK    3  A    between atoms: _3  and  _6
REMARK    4  A    between atoms: _6  and  _7
REMARK    5  A    between atoms: _7  and  _8
REMARK    6  A    between atoms: _11  and  _13
REMARK    7  A    between atoms: _13  and  _14
REMARK    8  A    between atoms: _17  and  _19
REMARK    9  A    between atoms: _19  and  _20
REMARK   10  A    between atoms: _19  and  _22
REMARK   11  A    between atoms: _22  and  _23
REMARK   12  A    between atoms: _23  and  _24
REMARK   13  A    between atoms: _24  and  _25
REMARK   14  A    between atoms: _25  and  _26
REMARK   15  A    between atoms: _30  and  _32
REMARK   16  A    between atoms: _32  and  _33
REMARK   17  A    between atoms: _32  and  _35
REMARK   18  A    between atoms: _35  and  _36
REMARK   19  A    between atoms: _42  and  _44
REMARK   20  A    between atoms: _44  and  _45
REMARK   21  A    between atoms: _44  and  _47
REMARK   22  A    between atoms: _47  and  _48
REMARK   23  A    between atoms: _48  and  _49
REMARK   24  A    between atoms: _49  and  _50
REMARK   25  A    between atoms: _59  and  _61
REMARK   26  A    between atoms: _61  and  _62
REMARK   27  A    between atoms: _61  and  _64
REMARK   28  A    between atoms: _64  and  _65
REMARK   29  A    between atoms: _65  and  _66
REMARK   30  A    between atoms: _71  and  _73
REMARK   31  A    between atoms: _73  and  _74
REMARK   32  A    between atoms: _73  and  _76
REMARK   33  A    between atoms: _76  and  _77
REMARK   34  A    between atoms: _82  and  _84
REMARK   35  A    between atoms: _84  and  _85
REMARK   36  A    between atoms: _84  and  _87
REMARK   37  A    between atoms: _87  and  _88
REMARK   38  A    between atoms: _88  and  _89
REMARK   39  A    between atoms: _91  and  _93
REMARK   40  A    between atoms: _93  and  _94
REMARK   41  A    between atoms: _93  and  _96
REMARK   42  A    between atoms: _96  and  _97
REMARK   43  A    between atoms: _100  and  _102
REMARK   44  A    between atoms: _102  and  _103
REMARK   45  A    between atoms: _102  and  _105
REMARK   46  A    between atoms: _105  and  _106
REMARK   47  A    between atoms: _106  and  _107
REMARK   48  A    between atoms: _107  and  _108
REMARK   49  A    between atoms: _117  and  _119
REMARK   50  A    between atoms: _119  and  _120
REMARK   51  A    between atoms: _119  and  _122
REMARK   52  A    between atoms: _122  and  _123
REMARK   53  A    between atoms: _123  and  _124
REMARK   54  A    between atoms: _124  and  _125
REMARK   55  A    between atoms: _125  and  _126
REMARK   56  A    between atoms: _131  and  _132
REMARK   57  A    between atoms: _137  and  _139
REMARK   58  A    between atoms: _139  and  _140
REMARK   59  A    between atoms: _139  and  _142
REMARK   60  A    between atoms: _145  and  _147
REMARK   61  A    between atoms: _147  and  _148
REMARK   62  A    between atoms: _147  and  _150
REMARK   63  A    between atoms: _150  and  _151
REMARK   64  A    between atoms: _156  and  _158
REMARK   65  A    between atoms: _158  and  _159
REMARK   66  A    between atoms: _158  and  _161
REMARK   67  A    between atoms: _161  and  _162
REMARK   68  A    between atoms: _165  and  _167
REMARK   69  A    between atoms: _167  and  _168
REMARK   70  A    between atoms: _167  and  _170
REMARK   71  A    between atoms: _170  and  _171
REMARK   72  A    between atoms: _177  and  _179
REMARK   73  A    between atoms: _179  and  _180
REMARK   74  A    between atoms: _179  and  _182
REMARK   75  A    between atoms: _182  and  _183
REMARK   76  A    between atoms: _183  and  _184
REMARK   77  A    between atoms: _184  and  _185
REMARK   78  A    between atoms: _185  and  _186
REMARK   79  A    between atoms: _190  and  _192
REMARK   80  A    between atoms: _192  and  _193
REMARK   81  A    between atoms: _192  and  _195
REMARK   82  A    between atoms: _195  and  _196
REMARK   83  A    between atoms: _201  and  _203
REMARK   84  A    between atoms: _203  and  _204
REMARK   85  A    between atoms: _203  and  _206
REMARK   86  A    between atoms: _206  and  _207
REMARK   87  A    between atoms: _210  and  _212
REMARK   88  A    between atoms: _212  and  _213
REMARK   89  A    between atoms: _212  and  _215
REMARK   90  A    between atoms: _215  and  _216
REMARK   91  A    between atoms: _219  and  _221
REMARK   92  A    between atoms: _221  and  _222
REMARK   93  A    between atoms: _221  and  _224
REMARK   94  A    between atoms: _224  and  _225
REMARK   95  A    between atoms: _228  and  _230
REMARK   96  A    between atoms: _230  and  _231
REMARK   97  A    between atoms: _230  and  _233
REMARK   98  A    between atoms: _235  and  _237
REMARK   99  A    between atoms: _237  and  _238
REMARK  100  A    between atoms: _237  and  _240
REMARK  101  A    between atoms: _240  and  _241
REMARK  102  A    between atoms: _241  and  _242
REMARK  103  A    between atoms: _242  and  _243
REMARK  104  A    between atoms: _252  and  _254
REMARK  105  A    between atoms: _254  and  _255
REMARK  106  A    between atoms: _254  and  _257
REMARK  107  A    between atoms: _257  and  _258
REMARK  108  A    between atoms: _258  and  _259
REMARK  109  A    between atoms: _259  and  _260
REMARK  110  A    between atoms: _260  and  _261
REMARK  111  A    between atoms: _265  and  _267
REMARK  112  A    between atoms: _267  and  _268
REMARK  113  A    between atoms: _267  and  _270
REMARK  114  A    between atoms: _270  and  _271
REMARK  115  A    between atoms: _274  and  _276
REMARK  116  A    between atoms: _276  and  _277
REMARK  117  A    between atoms: _281  and  _282
REMARK  118  A    between atoms: _287  and  _289
REMARK  119  A    between atoms: _289  and  _290
REMARK  120  A    between atoms: _289  and  _292
REMARK  121  A    between atoms: _295  and  _297
REMARK  122  A    between atoms: _297  and  _298
REMARK  123  A    between atoms: _297  and  _300
REMARK  124  A    between atoms: _300  and  _301
REMARK  125  A    between atoms: _306  and  _308
REMARK  126  A    between atoms: _308  and  _309
REMARK  127  A    between atoms: _308  and  _311
REMARK  128  A    between atoms: _311  and  _312
REMARK  129  A    between atoms: _318  and  _320
REMARK  130  A    between atoms: _320  and  _321
REMARK  131  A    between atoms: _320  and  _323
REMARK  132  A    between atoms: _323  and  _324
REMARK  133  A    between atoms: _327  and  _329
REMARK  134  A    between atoms: _329  and  _330
REMARK  135  A    between atoms: _333  and  _335
REMARK  136  A    between atoms: _335  and  _336
REMARK  137  A    between atoms: _335  and  _338
REMARK  138  A    between atoms: _338  and  _339
REMARK  139  A    between atoms: _341  and  _343
REMARK  140  A    between atoms: _343  and  _344
REMARK  141  A    between atoms: _343  and  _346
REMARK                            x       y       z     vdW  Elec       q    Type
REMARK                         _______ _______ _______ _____ _____    ______ ____
ROOT
ATOM      1  O   HOH     1      36.579   8.772  20.074  0.00  0.00    +0.000 OA
ENDROOT
TORSDOF 0
REMARK  Name = ../refined-set-2016/4g8v/4g8v_pocket.pdb
REMARK  141 active torsions:
REMARK  status: ('A' for Active; 'I' for Inactive)
REMARK    1  A    between atoms: _1  and  _3
REMARK    2  A    between atoms: _3  and  _4
REMARK    3  A    between atoms: _3  and  _6
REMARK    4  A    between atoms: _6  and  _7
REMARK    5  A    between atoms: _7  and  _8
REMARK    6  A    between atoms: _11  and  _13
REMARK    7  A    between atoms: _13  and  _14
REMARK    8  A    between atoms: _17  and  _19
REMARK    9  A    between atoms: _19  and  _20
REMARK   10  A    between atoms: _19  and  _22
REMARK   11  A    between atoms: _22  and  _23
REMARK   12  A    between atoms: _23  and  _24
REMARK   13  A    between atoms: _24  and  _25
REMARK   14  A    between atoms: _25  and  _26
REMARK   15  A    between atoms: _30  and  _32
REMARK   16  A    between atoms: _32  and  _33
REMARK   17  A    between atoms: _32  and  _35
REMARK   18  A    between atoms: _35  and  _36
REMARK   19  A    between atoms: _42  and  _44
REMARK   20  A    between atoms: _44  and  _45
REMARK   21  A    between atoms: _44  and  _47
REMARK   22  A    between atoms: _47  and  _48
REMARK   23  A    between atoms: _48  and  _49
REMARK   24  A    between atoms: _49  and  _50
REMARK   25  A    between atoms: _59  and  _61
REMARK   26  A    between atoms: _61  and  _62
REMARK   27  A    between atoms: _61  and  _64
REMARK   28  A    between atoms: _64  and  _65
REMARK   29  A    between atoms: _65  and  _66
REMARK   30  A    between atoms: _71  and  _73
REMARK   31  A    between atoms: _73  and  _74
REMARK   32  A    between atoms: _73  and  _76
REMARK   33  A    between atoms: _76  and  _77
REMARK   34  A    between atoms: _82  and  _84
REMARK   35  A    between atoms: _84  and  _85
REMARK   36  A    between atoms: _84  and  _87
REMARK   37  A    between atoms: _87  and  _88
REMARK   38  A    between atoms: _88  and  _89
REMARK   39  A    between atoms: _91  and  _93
REMARK   40  A    between atoms: _93  and  _94
REMARK   41  A    between atoms: _93  and  _96
REMARK   42  A    between atoms: _96  and  _97
REMARK   43  A    between atoms: _100  and  _102
REMARK   44  A    between atoms: _102  and  _103
REMARK   45  A    between atoms: _102  and  _105
REMARK   46  A    between atoms: _105  and  _106
REMARK   47  A    between atoms: _106  and  _107
REMARK   48  A    between atoms: _107  and  _108
REMARK   49  A    between atoms: _117  and  _119
REMARK   50  A    between atoms: _119  and  _120
REMARK   51  A    between atoms: _119  and  _122
REMARK   52  A    between atoms: _122  and  _123
REMARK   53  A    between atoms: _123  and  _124
REMARK   54  A    between atoms: _124  and  _125
REMARK   55  A    between atoms: _125  and  _126
REMARK   56  A    between atoms: _131  and  _132
REMARK   57  A    between atoms: _137  and  _139
REMARK   58  A    between atoms: _139  and  _140
REMARK   59  A    between atoms: _139  and  _142
REMARK   60  A    between atoms: _145  and  _147
REMARK   61  A    between atoms: _147  and  _148
REMARK   62  A    between atoms: _147  and  _150
REMARK   63  A    between atoms: _150  and  _151
REMARK   64  A    between atoms: _156  and  _158
REMARK   65  A    between atoms: _158  and  _159
REMARK   66  A    between atoms: _158  and  _161
REMARK   67  A    between atoms: _161  and  _162
REMARK   68  A    between atoms: _165  and  _167
REMARK   69  A    between atoms: _167  and  _168
REMARK   70  A    between atoms: _167  and  _170
REMARK   71  A    between atoms: _170  and  _171
REMARK   72  A    between atoms: _177  and  _179
REMARK   73  A    between atoms: _179  and  _180
REMARK   74  A    between atoms: _179  and  _182
REMARK   75  A    between atoms: _182  and  _183
REMARK   76  A    between atoms: _183  and  _184
REMARK   77  A    between atoms: _184  and  _185
REMARK   78  A    between atoms: _185  and  _186
REMARK   79  A    between atoms: _190  and  _192
REMARK   80  A    between atoms: _192  and  _193
REMARK   81  A    between atoms: _192  and  _195
REMARK   82  A    between atoms: _195  and  _196
REMARK   83  A    between atoms: _201  and  _203
REMARK   84  A    between atoms: _203  and  _204
REMARK   85  A    between atoms: _203  and  _206
REMARK   86  A    between atoms: _206  and  _207
REMARK   87  A    between atoms: _210  and  _212
REMARK   88  A    between atoms: _212  and  _213
REMARK   89  A    between atoms: _212  and  _215
REMARK   90  A    between atoms: _215  and  _216
REMARK   91  A    between atoms: _219  and  _221
REMARK   92  A    between atoms: _221  and  _222
REMARK   93  A    between atoms: _221  and  _224
REMARK   94  A    between atoms: _224  and  _225
REMARK   95  A    between atoms: _228  and  _230
REMARK   96  A    between atoms: _230  and  _231
REMARK   97  A    between atoms: _230  and  _233
REMARK   98  A    between atoms: _235  and  _237
REMARK   99  A    between atoms: _237  and  _238
REMARK  100  A    between atoms: _237  and  _240
REMARK  101  A    between atoms: _240  and  _241
REMARK  102  A    between atoms: _241  and  _242
REMARK  103  A    between atoms: _242  and  _243
REMARK  104  A    between atoms: _252  and  _254
REMARK  105  A    between atoms: _254  and  _255
REMARK  106  A    between atoms: _254  and  _257
REMARK  107  A    between atoms: _257  and  _258
REMARK  108  A    between atoms: _258  and  _259
REMARK  109  A    between atoms: _259  and  _260
REMARK  110  A    between atoms: _260  and  _261
REMARK  111  A    between atoms: _265  and  _267
REMARK  112  A    between atoms: _267  and  _268
REMARK  113  A    between atoms: _267  and  _270
REMARK  114  A    between atoms: _270  and  _271
REMARK  115  A    between atoms: _274  and  _276
REMARK  116  A    between atoms: _276  and  _277
REMARK  117  A    between atoms: _281  and  _282
REMARK  118  A    between atoms: _287  and  _289
REMARK  119  A    between atoms: _289  and  _290
REMARK  120  A    between atoms: _289  and  _292
REMARK  121  A    between atoms: _295  and  _297
REMARK  122  A    between atoms: _297  and  _298
REMARK  123  A    between atoms: _297  and  _300
REMARK  124  A    between atoms: _300  and  _301
REMARK  125  A    between atoms: _306  and  _308
REMARK  126  A    between atoms: _308  and  _309
REMARK  127  A    between atoms: _308  and  _311
REMARK  128  A    between atoms: _311  and  _312
REMARK  129  A    between atoms: _318  and  _320
REMARK  130  A    between atoms: _320  and  _321
REMARK  131  A    between atoms: _320  and  _323
REMARK  132  A    between atoms: _323  and  _324
REMARK  133  A    between atoms: _327  and  _329
REMARK  134  A    between atoms: _329  and  _330
REMARK  135  A    between atoms: _333  and  _335
REMARK  136  A    between atoms: _335  and  _336
REMARK  137  A    between atoms: _335  and  _338
REMARK  138  A    between atoms: _338  and  _339
REMARK  139  A    between atoms: _341  and  _343
REMARK  140  A    between atoms: _343  and  _344
REMARK  141  A    between atoms: _343  and  _346
REMARK                            x       y       z     vdW  Elec       q    Type
REMARK                         _______ _______ _______ _____ _____    ______ ____
ROOT
ATOM      1  O   HOH     1      36.083  10.113  18.059  0.00  0.00    +0.000 OA
ENDROOT
TORSDOF 0
REMARK  Name = ../refined-set-2016/4g8v/4g8v_pocket.pdb
REMARK  141 active torsions:
REMARK  status: ('A' for Active; 'I' for Inactive)
REMARK    1  A    between atoms: _1  and  _3
REMARK    2  A    between atoms: _3  and  _4
REMARK    3  A    between atoms: _3  and  _6
REMARK    4  A    between atoms: _6  and  _7
REMARK    5  A    between atoms: _7  and  _8
REMARK    6  A    between atoms: _11  and  _13
REMARK    7  A    between atoms: _13  and  _14
REMARK    8  A    between atoms: _17  and  _19
REMARK    9  A    between atoms: _19  and  _20
REMARK   10  A    between atoms: _19  and  _22
REMARK   11  A    between atoms: _22  and  _23
REMARK   12  A    between atoms: _23  and  _24
REMARK   13  A    between atoms: _24  and  _25
REMARK   14  A    between atoms: _25  and  _26
REMARK   15  A    between atoms: _30  and  _32
REMARK   16  A    between atoms: _32  and  _33
REMARK   17  A    between atoms: _32  and  _35
REMARK   18  A    between atoms: _35  and  _36
REMARK   19  A    between atoms: _42  and  _44
REMARK   20  A    between atoms: _44  and  _45
REMARK   21  A    between atoms: _44  and  _47
REMARK   22  A    between atoms: _47  and  _48
REMARK   23  A    between atoms: _48  and  _49
REMARK   24  A    between atoms: _49  and  _50
REMARK   25  A    between atoms: _59  and  _61
REMARK   26  A    between atoms: _61  and  _62
REMARK   27  A    between atoms: _61  and  _64
REMARK   28  A    between atoms: _64  and  _65
REMARK   29  A    between atoms: _65  and  _66
REMARK   30  A    between atoms: _71  and  _73
REMARK   31  A    between atoms: _73  and  _74
REMARK   32  A    between atoms: _73  and  _76
REMARK   33  A    between atoms: _76  and  _77
REMARK   34  A    between atoms: _82  and  _84
REMARK   35  A    between atoms: _84  and  _85
REMARK   36  A    between atoms: _84  and  _87
REMARK   37  A    between atoms: _87  and  _88
REMARK   38  A    between atoms: _88  and  _89
REMARK   39  A    between atoms: _91  and  _93
REMARK   40  A    between atoms: _93  and  _94
REMARK   41  A    between atoms: _93  and  _96
REMARK   42  A    between atoms: _96  and  _97
REMARK   43  A    between atoms: _100  and  _102
REMARK   44  A    between atoms: _102  and  _103
REMARK   45  A    between atoms: _102  and  _105
REMARK   46  A    between atoms: _105  and  _106
REMARK   47  A    between atoms: _106  and  _107
REMARK   48  A    between atoms: _107  and  _108
REMARK   49  A    between atoms: _117  and  _119
REMARK   50  A    between atoms: _119  and  _120
REMARK   51  A    between atoms: _119  and  _122
REMARK   52  A    between atoms: _122  and  _123
REMARK   53  A    between atoms: _123  and  _124
REMARK   54  A    between atoms: _124  and  _125
REMARK   55  A    between atoms: _125  and  _126
REMARK   56  A    between atoms: _131  and  _132
REMARK   57  A    between atoms: _137  and  _139
REMARK   58  A    between atoms: _139  and  _140
REMARK   59  A    between atoms: _139  and  _142
REMARK   60  A    between atoms: _145  and  _147
REMARK   61  A    between atoms: _147  and  _148
REMARK   62  A    between atoms: _147  and  _150
REMARK   63  A    between atoms: _150  and  _151
REMARK   64  A    between atoms: _156  and  _158
REMARK   65  A    between atoms: _158  and  _159
REMARK   66  A    between atoms: _158  and  _161
REMARK   67  A    between atoms: _161  and  _162
REMARK   68  A    between atoms: _165  and  _167
REMARK   69  A    between atoms: _167  and  _168
REMARK   70  A    between atoms: _167  and  _170
REMARK   71  A    between atoms: _170  and  _171
REMARK   72  A    between atoms: _177  and  _179
REMARK   73  A    between atoms: _179  and  _180
REMARK   74  A    between atoms: _179  and  _182
REMARK   75  A    between atoms: _182  and  _183
REMARK   76  A    between atoms: _183  and  _184
REMARK   77  A    between atoms: _184  and  _185
REMARK   78  A    between atoms: _185  and  _186
REMARK   79  A    between atoms: _190  and  _192
REMARK   80  A    between atoms: _192  and  _193
REMARK   81  A    between atoms: _192  and  _195
REMARK   82  A    between atoms: _195  and  _196
REMARK   83  A    between atoms: _201  and  _203
REMARK   84  A    between atoms: _203  and  _204
REMARK   85  A    between atoms: _203  and  _206
REMARK   86  A    between atoms: _206  and  _207
REMARK   87  A    between atoms: _210  and  _212
REMARK   88  A    between atoms: _212  and  _213
REMARK   89  A    between atoms: _212  and  _215
REMARK   90  A    between atoms: _215  and  _216
REMARK   91  A    between atoms: _219  and  _221
REMARK   92  A    between atoms: _221  and  _222
REMARK   93  A    between atoms: _221  and  _224
REMARK   94  A    between atoms: _224  and  _225
REMARK   95  A    between atoms: _228  and  _230
REMARK   96  A    between atoms: _230  and  _231
REMARK   97  A    between atoms: _230  and  _233
REMARK   98  A    between atoms: _235  and  _237
REMARK   99  A    between atoms: _237  and  _238
REMARK  100  A    between atoms: _237  and  _240
REMARK  101  A    between atoms: _240  and  _241
REMARK  102  A    between atoms: _241  and  _242
REMARK  103  A    between atoms: _242  and  _243
REMARK  104  A    between atoms: _252  and  _254
REMARK  105  A    between atoms: _254  and  _255
REMARK  106  A    between atoms: _254  and  _257
REMARK  107  A    between atoms: _257  and  _258
REMARK  108  A    between atoms: _258  and  _259
REMARK  109  A    between atoms: _259  and  _260
REMARK  110  A    between atoms: _260  and  _261
REMARK  111  A    between atoms: _265  and  _267
REMARK  112  A    between atoms: _267  and  _268
REMARK  113  A    between atoms: _267  and  _270
REMARK  114  A    between atoms: _270  and  _271
REMARK  115  A    between atoms: _274  and  _276
REMARK  116  A    between atoms: _276  and  _277
REMARK  117  A    between atoms: _281  and  _282
REMARK  118  A    between atoms: _287  and  _289
REMARK  119  A    between atoms: _289  and  _290
REMARK  120  A    between atoms: _289  and  _292
REMARK  121  A    between atoms: _295  and  _297
REMARK  122  A    between atoms: _297  and  _298
REMARK  123  A    between atoms: _297  and  _300
REMARK  124  A    between atoms: _300  and  _301
REMARK  125  A    between atoms: _306  and  _308
REMARK  126  A    between atoms: _308  and  _309
REMARK  127  A    between atoms: _308  and  _311
REMARK  128  A    between atoms: _311  and  _312
REMARK  129  A    between atoms: _318  and  _320
REMARK  130  A    between atoms: _320  and  _321
REMARK  131  A    between atoms: _320  and  _323
REMARK  132  A    between atoms: _323  and  _324
REMARK  133  A    between atoms: _327  and  _329
REMARK  134  A    between atoms: _329  and  _330
REMARK  135  A    between atoms: _333  and  _335
REMARK  136  A    between atoms: _335  and  _336
REMARK  137  A    between atoms: _335  and  _338
REMARK  138  A    between atoms: _338  and  _339
REMARK  139  A    between atoms: _341  and  _343
REMARK  140  A    between atoms: _343  and  _344
REMARK  141  A    between atoms: _343  and  _346
REMARK                            x       y       z     vdW  Elec       q    Type
REMARK                         _______ _______ _______ _____ _____    ______ ____
ROOT
ATOM      1  O   HOH     1      40.823   5.919   6.541  0.00  0.00    +0.000 OA
ENDROOT
TORSDOF 0
REMARK  Name = ../refined-set-2016/4g8v/4g8v_pocket.pdb
REMARK  141 active torsions:
REMARK  status: ('A' for Active; 'I' for Inactive)
REMARK    1  A    between atoms: _1  and  _3
REMARK    2  A    between atoms: _3  and  _4
REMARK    3  A    between atoms: _3  and  _6
REMARK    4  A    between atoms: _6  and  _7
REMARK    5  A    between atoms: _7  and  _8
REMARK    6  A    between atoms: _11  and  _13
REMARK    7  A    between atoms: _13  and  _14
REMARK    8  A    between atoms: _17  and  _19
REMARK    9  A    between atoms: _19  and  _20
REMARK   10  A    between atoms: _19  and  _22
REMARK   11  A    between atoms: _22  and  _23
REMARK   12  A    between atoms: _23  and  _24
REMARK   13  A    between atoms: _24  and  _25
REMARK   14  A    between atoms: _25  and  _26
REMARK   15  A    between atoms: _30  and  _32
REMARK   16  A    between atoms: _32  and  _33
REMARK   17  A    between atoms: _32  and  _35
REMARK   18  A    between atoms: _35  and  _36
REMARK   19  A    between atoms: _42  and  _44
REMARK   20  A    between atoms: _44  and  _45
REMARK   21  A    between atoms: _44  and  _47
REMARK   22  A    between atoms: _47  and  _48
REMARK   23  A    between atoms: _48  and  _49
REMARK   24  A    between atoms: _49  and  _50
REMARK   25  A    between atoms: _59  and  _61
REMARK   26  A    between atoms: _61  and  _62
REMARK   27  A    between atoms: _61  and  _64
REMARK   28  A    between atoms: _64  and  _65
REMARK   29  A    between atoms: _65  and  _66
REMARK   30  A    between atoms: _71  and  _73
REMARK   31  A    between atoms: _73  and  _74
REMARK   32  A    between atoms: _73  and  _76
REMARK   33  A    between atoms: _76  and  _77
REMARK   34  A    between atoms: _82  and  _84
REMARK   35  A    between atoms: _84  and  _85
REMARK   36  A    between atoms: _84  and  _87
REMARK   37  A    between atoms: _87  and  _88
REMARK   38  A    between atoms: _88  and  _89
REMARK   39  A    between atoms: _91  and  _93
REMARK   40  A    between atoms: _93  and  _94
REMARK   41  A    between atoms: _93  and  _96
REMARK   42  A    between atoms: _96  and  _97
REMARK   43  A    between atoms: _100  and  _102
REMARK   44  A    between atoms: _102  and  _103
REMARK   45  A    between atoms: _102  and  _105
REMARK   46  A    between atoms: _105  and  _106
REMARK   47  A    between atoms: _106  and  _107
REMARK   48  A    between atoms: _107  and  _108
REMARK   49  A    between atoms: _117  and  _119
REMARK   50  A    between atoms: _119  and  _120
REMARK   51  A    between atoms: _119  and  _122
REMARK   52  A    between atoms: _122  and  _123
REMARK   53  A    between atoms: _123  and  _124
REMARK   54  A    between atoms: _124  and  _125
REMARK   55  A    between atoms: _125  and  _126
REMARK   56  A    between atoms: _131  and  _132
REMARK   57  A    between atoms: _137  and  _139
REMARK   58  A    between atoms: _139  and  _140
REMARK   59  A    between atoms: _139  and  _142
REMARK   60  A    between atoms: _145  and  _147
REMARK   61  A    between atoms: _147  and  _148
REMARK   62  A    between atoms: _147  and  _150
REMARK   63  A    between atoms: _150  and  _151
REMARK   64  A    between atoms: _156  and  _158
REMARK   65  A    between atoms: _158  and  _159
REMARK   66  A    between atoms: _158  and  _161
REMARK   67  A    between atoms: _161  and  _162
REMARK   68  A    between atoms: _165  and  _167
REMARK   69  A    between atoms: _167  and  _168
REMARK   70  A    between atoms: _167  and  _170
REMARK   71  A    between atoms: _170  and  _171
REMARK   72  A    between atoms: _177  and  _179
REMARK   73  A    between atoms: _179  and  _180
REMARK   74  A    between atoms: _179  and  _182
REMARK   75  A    between atoms: _182  and  _183
REMARK   76  A    between atoms: _183  and  _184
REMARK   77  A    between atoms: _184  and  _185
REMARK   78  A    between atoms: _185  and  _186
REMARK   79  A    between atoms: _190  and  _192
REMARK   80  A    between atoms: _192  and  _193
REMARK   81  A    between atoms: _192  and  _195
REMARK   82  A    between atoms: _195  and  _196
REMARK   83  A    between atoms: _201  and  _203
REMARK   84  A    between atoms: _203  and  _204
REMARK   85  A    between atoms: _203  and  _206
REMARK   86  A    between atoms: _206  and  _207
REMARK   87  A    between atoms: _210  and  _212
REMARK   88  A    between atoms: _212  and  _213
REMARK   89  A    between atoms: _212  and  _215
REMARK   90  A    between atoms: _215  and  _216
REMARK   91  A    between atoms: _219  and  _221
REMARK   92  A    between atoms: _221  and  _222
REMARK   93  A    between atoms: _221  and  _224
REMARK   94  A    between atoms: _224  and  _225
REMARK   95  A    between atoms: _228  and  _230
REMARK   96  A    between atoms: _230  and  _231
REMARK   97  A    between atoms: _230  and  _233
REMARK   98  A    between atoms: _235  and  _237
REMARK   99  A    between atoms: _237  and  _238
REMARK  100  A    between atoms: _237  and  _240
REMARK  101  A    between atoms: _240  and  _241
REMARK  102  A    between atoms: _241  and  _242
REMARK  103  A    between atoms: _242  and  _243
REMARK  104  A    between atoms: _252  and  _254
REMARK  105  A    between atoms: _254  and  _255
REMARK  106  A    between atoms: _254  and  _257
REMARK  107  A    between atoms: _257  and  _258
REMARK  108  A    between atoms: _258  and  _259
REMARK  109  A    between atoms: _259  and  _260
REMARK  110  A    between atoms: _260  and  _261
REMARK  111  A    between atoms: _265  and  _267
REMARK  112  A    between atoms: _267  and  _268
REMARK  113  A    between atoms: _267  and  _270
REMARK  114  A    between atoms: _270  and  _271
REMARK  115  A    between atoms: _274  and  _276
REMARK  116  A    between atoms: _276  and  _277
REMARK  117  A    between atoms: _281  and  _282
REMARK  118  A    between atoms: _287  and  _289
REMARK  119  A    between atoms: _289  and  _290
REMARK  120  A    between atoms: _289  and  _292
REMARK  121  A    between atoms: _295  and  _297
REMARK  122  A    between atoms: _297  and  _298
REMARK  123  A    between atoms: _297  and  _300
REMARK  124  A    between atoms: _300  and  _301
REMARK  125  A    between atoms: _306  and  _308
REMARK  126  A    between atoms: _308  and  _309
REMARK  127  A    between atoms: _308  and  _311
REMARK  128  A    between atoms: _311  and  _312
REMARK  129  A    between atoms: _318  and  _320
REMARK  130  A    between atoms: _320  and  _321
REMARK  131  A    between atoms: _320  and  _323
REMARK  132  A    between atoms: _323  and  _324
REMARK  133  A    between atoms: _327  and  _329
REMARK  134  A    between atoms: _329  and  _330
REMARK  135  A    between atoms: _333  and  _335
REMARK  136  A    between atoms: _335  and  _336
REMARK  137  A    between atoms: _335  and  _338
REMARK  138  A    between atoms: _338  and  _339
REMARK  139  A    between atoms: _341  and  _343
REMARK  140  A    between atoms: _343  and  _344
REMARK  141  A    between atoms: _343  and  _346
REMARK                            x       y       z     vdW  Elec       q    Type
REMARK                         _______ _______ _______ _____ _____    ______ ____
ROOT
ATOM      1  O   HOH     1      38.527   3.646  19.887  0.00  0.00    +0.000 OA
ENDROOT
TORSDOF 0
REMARK  Name = ../refined-set-2016/4g8v/4g8v_pocket.pdb
REMARK  141 active torsions:
REMARK  status: ('A' for Active; 'I' for Inactive)
REMARK    1  A    between atoms: _1  and  _3
REMARK    2  A    between atoms: _3  and  _4
REMARK    3  A    between atoms: _3  and  _6
REMARK    4  A    between atoms: _6  and  _7
REMARK    5  A    between atoms: _7  and  _8
REMARK    6  A    between atoms: _11  and  _13
REMARK    7  A    between atoms: _13  and  _14
REMARK    8  A    between atoms: _17  and  _19
REMARK    9  A    between atoms: _19  and  _20
REMARK   10  A    between atoms: _19  and  _22
REMARK   11  A    between atoms: _22  and  _23
REMARK   12  A    between atoms: _23  and  _24
REMARK   13  A    between atoms: _24  and  _25
REMARK   14  A    between atoms: _25  and  _26
REMARK   15  A    between atoms: _30  and  _32
REMARK   16  A    between atoms: _32  and  _33
REMARK   17  A    between atoms: _32  and  _35
REMARK   18  A    between atoms: _35  and  _36
REMARK   19  A    between atoms: _42  and  _44
REMARK   20  A    between atoms: _44  and  _45
REMARK   21  A    between atoms: _44  and  _47
REMARK   22  A    between atoms: _47  and  _48
REMARK   23  A    between atoms: _48  and  _49
REMARK   24  A    between atoms: _49  and  _50
REMARK   25  A    between atoms: _59  and  _61
REMARK   26  A    between atoms: _61  and  _62
REMARK   27  A    between atoms: _61  and  _64
REMARK   28  A    between atoms: _64  and  _65
REMARK   29  A    between atoms: _65  and  _66
REMARK   30  A    between atoms: _71  and  _73
REMARK   31  A    between atoms: _73  and  _74
REMARK   32  A    between atoms: _73  and  _76
REMARK   33  A    between atoms: _76  and  _77
REMARK   34  A    between atoms: _82  and  _84
REMARK   35  A    between atoms: _84  and  _85
REMARK   36  A    between atoms: _84  and  _87
REMARK   37  A    between atoms: _87  and  _88
REMARK   38  A    between atoms: _88  and  _89
REMARK   39  A    between atoms: _91  and  _93
REMARK   40  A    between atoms: _93  and  _94
REMARK   41  A    between atoms: _93  and  _96
REMARK   42  A    between atoms: _96  and  _97
REMARK   43  A    between atoms: _100  and  _102
REMARK   44  A    between atoms: _102  and  _103
REMARK   45  A    between atoms: _102  and  _105
REMARK   46  A    between atoms: _105  and  _106
REMARK   47  A    between atoms: _106  and  _107
REMARK   48  A    between atoms: _107  and  _108
REMARK   49  A    between atoms: _117  and  _119
REMARK   50  A    between atoms: _119  and  _120
REMARK   51  A    between atoms: _119  and  _122
REMARK   52  A    between atoms: _122  and  _123
REMARK   53  A    between atoms: _123  and  _124
REMARK   54  A    between atoms: _124  and  _125
REMARK   55  A    between atoms: _125  and  _126
REMARK   56  A    between atoms: _131  and  _132
REMARK   57  A    between atoms: _137  and  _139
REMARK   58  A    between atoms: _139  and  _140
REMARK   59  A    between atoms: _139  and  _142
REMARK   60  A    between atoms: _145  and  _147
REMARK   61  A    between atoms: _147  and  _148
REMARK   62  A    between atoms: _147  and  _150
REMARK   63  A    between atoms: _150  and  _151
REMARK   64  A    between atoms: _156  and  _158
REMARK   65  A    between atoms: _158  and  _159
REMARK   66  A    between atoms: _158  and  _161
REMARK   67  A    between atoms: _161  and  _162
REMARK   68  A    between atoms: _165  and  _167
REMARK   69  A    between atoms: _167  and  _168
REMARK   70  A    between atoms: _167  and  _170
REMARK   71  A    between atoms: _170  and  _171
REMARK   72  A    between atoms: _177  and  _179
REMARK   73  A    between atoms: _179  and  _180
REMARK   74  A    between atoms: _179  and  _182
REMARK   75  A    between atoms: _182  and  _183
REMARK   76  A    between atoms: _183  and  _184
REMARK   77  A    between atoms: _184  and  _185
REMARK   78  A    between atoms: _185  and  _186
REMARK   79  A    between atoms: _190  and  _192
REMARK   80  A    between atoms: _192  and  _193
REMARK   81  A    between atoms: _192  and  _195
REMARK   82  A    between atoms: _195  and  _196
REMARK   83  A    between atoms: _201  and  _203
REMARK   84  A    between atoms: _203  and  _204
REMARK   85  A    between atoms: _203  and  _206
REMARK   86  A    between atoms: _206  and  _207
REMARK   87  A    between atoms: _210  and  _212
REMARK   88  A    between atoms: _212  and  _213
REMARK   89  A    between atoms: _212  and  _215
REMARK   90  A    between atoms: _215  and  _216
REMARK   91  A    between atoms: _219  and  _221
REMARK   92  A    between atoms: _221  and  _222
REMARK   93  A    between atoms: _221  and  _224
REMARK   94  A    between atoms: _224  and  _225
REMARK   95  A    between atoms: _228  and  _230
REMARK   96  A    between atoms: _230  and  _231
REMARK   97  A    between atoms: _230  and  _233
REMARK   98  A    between atoms: _235  and  _237
REMARK   99  A    between atoms: _237  and  _238
REMARK  100  A    between atoms: _237  and  _240
REMARK  101  A    between atoms: _240  and  _241
REMARK  102  A    between atoms: _241  and  _242
REMARK  103  A    between atoms: _242  and  _243
REMARK  104  A    between atoms: _252  and  _254
REMARK  105  A    between atoms: _254  and  _255
REMARK  106  A    between atoms: _254  and  _257
REMARK  107  A    between atoms: _257  and  _258
REMARK  108  A    between atoms: _258  and  _259
REMARK  109  A    between atoms: _259  and  _260
REMARK  110  A    between atoms: _260  and  _261
REMARK  111  A    between atoms: _265  and  _267
REMARK  112  A    between atoms: _267  and  _268
REMARK  113  A    between atoms: _267  and  _270
REMARK  114  A    between atoms: _270  and  _271
REMARK  115  A    between atoms: _274  and  _276
REMARK  116  A    between atoms: _276  and  _277
REMARK  117  A    between atoms: _281  and  _282
REMARK  118  A    between atoms: _287  and  _289
REMARK  119  A    between atoms: _289  and  _290
REMARK  120  A    between atoms: _289  and  _292
REMARK  121  A    between atoms: _295  and  _297
REMARK  122  A    between atoms: _297  and  _298
REMARK  123  A    between atoms: _297  and  _300
REMARK  124  A    between atoms: _300  and  _301
REMARK  125  A    between atoms: _306  and  _308
REMARK  126  A    between atoms: _308  and  _309
REMARK  127  A    between atoms: _308  and  _311
REMARK  128  A    between atoms: _311  and  _312
REMARK  129  A    between atoms: _318  and  _320
REMARK  130  A    between atoms: _320  and  _321
REMARK  131  A    between atoms: _320  and  _323
REMARK  132  A    between atoms: _323  and  _324
REMARK  133  A    between atoms: _327  and  _329
REMARK  134  A    between atoms: _329  and  _330
REMARK  135  A    between atoms: _333  and  _335
REMARK  136  A    between atoms: _335  and  _336
REMARK  137  A    between atoms: _335  and  _338
REMARK  138  A    between atoms: _338  and  _339
REMARK  139  A    between atoms: _341  and  _343
REMARK  140  A    between atoms: _343  and  _344
REMARK  141  A    between atoms: _343  and  _346
REMARK                            x       y       z     vdW  Elec       q    Type
REMARK                         _______ _______ _______ _____ _____    ______ ____
ROOT
ATOM      1  O   HOH     1      35.275   1.133  18.772  0.00  0.00    +0.000 OA
ENDROOT
TORSDOF 0
REMARK  Name = ../refined-set-2016/4g8v/4g8v_pocket.pdb
REMARK  141 active torsions:
REMARK  status: ('A' for Active; 'I' for Inactive)
REMARK    1  A    between atoms: _1  and  _3
REMARK    2  A    between atoms: _3  and  _4
REMARK    3  A    between atoms: _3  and  _6
REMARK    4  A    between atoms: _6  and  _7
REMARK    5  A    between atoms: _7  and  _8
REMARK    6  A    between atoms: _11  and  _13
REMARK    7  A    between atoms: _13  and  _14
REMARK    8  A    between atoms: _17  and  _19
REMARK    9  A    between atoms: _19  and  _20
REMARK   10  A    between atoms: _19  and  _22
REMARK   11  A    between atoms: _22  and  _23
REMARK   12  A    between atoms: _23  and  _24
REMARK   13  A    between atoms: _24  and  _25
REMARK   14  A    between atoms: _25  and  _26
REMARK   15  A    between atoms: _30  and  _32
REMARK   16  A    between atoms: _32  and  _33
REMARK   17  A    between atoms: _32  and  _35
REMARK   18  A    between atoms: _35  and  _36
REMARK   19  A    between atoms: _42  and  _44
REMARK   20  A    between atoms: _44  and  _45
REMARK   21  A    between atoms: _44  and  _47
REMARK   22  A    between atoms: _47  and  _48
REMARK   23  A    between atoms: _48  and  _49
REMARK   24  A    between atoms: _49  and  _50
REMARK   25  A    between atoms: _59  and  _61
REMARK   26  A    between atoms: _61  and  _62
REMARK   27  A    between atoms: _61  and  _64
REMARK   28  A    between atoms: _64  and  _65
REMARK   29  A    between atoms: _65  and  _66
REMARK   30  A    between atoms: _71  and  _73
REMARK   31  A    between atoms: _73  and  _74
REMARK   32  A    between atoms: _73  and  _76
REMARK   33  A    between atoms: _76  and  _77
REMARK   34  A    between atoms: _82  and  _84
REMARK   35  A    between atoms: _84  and  _85
REMARK   36  A    between atoms: _84  and  _87
REMARK   37  A    between atoms: _87  and  _88
REMARK   38  A    between atoms: _88  and  _89
REMARK   39  A    between atoms: _91  and  _93
REMARK   40  A    between atoms: _93  and  _94
REMARK   41  A    between atoms: _93  and  _96
REMARK   42  A    between atoms: _96  and  _97
REMARK   43  A    between atoms: _100  and  _102
REMARK   44  A    between atoms: _102  and  _103
REMARK   45  A    between atoms: _102  and  _105
REMARK   46  A    between atoms: _105  and  _106
REMARK   47  A    between atoms: _106  and  _107
REMARK   48  A    between atoms: _107  and  _108
REMARK   49  A    between atoms: _117  and  _119
REMARK   50  A    between atoms: _119  and  _120
REMARK   51  A    between atoms: _119  and  _122
REMARK   52  A    between atoms: _122  and  _123
REMARK   53  A    between atoms: _123  and  _124
REMARK   54  A    between atoms: _124  and  _125
REMARK   55  A    between atoms: _125  and  _126
REMARK   56  A    between atoms: _131  and  _132
REMARK   57  A    between atoms: _137  and  _139
REMARK   58  A    between atoms: _139  and  _140
REMARK   59  A    between atoms: _139  and  _142
REMARK   60  A    between atoms: _145  and  _147
REMARK   61  A    between atoms: _147  and  _148
REMARK   62  A    between atoms: _147  and  _150
REMARK   63  A    between atoms: _150  and  _151
REMARK   64  A    between atoms: _156  and  _158
REMARK   65  A    between atoms: _158  and  _159
REMARK   66  A    between atoms: _158  and  _161
REMARK   67  A    between atoms: _161  and  _162
REMARK   68  A    between atoms: _165  and  _167
REMARK   69  A    between atoms: _167  and  _168
REMARK   70  A    between atoms: _167  and  _170
REMARK   71  A    between atoms: _170  and  _171
REMARK   72  A    between atoms: _177  and  _179
REMARK   73  A    between atoms: _179  and  _180
REMARK   74  A    between atoms: _179  and  _182
REMARK   75  A    between atoms: _182  and  _183
REMARK   76  A    between atoms: _183  and  _184
REMARK   77  A    between atoms: _184  and  _185
REMARK   78  A    between atoms: _185  and  _186
REMARK   79  A    between atoms: _190  and  _192
REMARK   80  A    between atoms: _192  and  _193
REMARK   81  A    between atoms: _192  and  _195
REMARK   82  A    between atoms: _195  and  _196
REMARK   83  A    between atoms: _201  and  _203
REMARK   84  A    between atoms: _203  and  _204
REMARK   85  A    between atoms: _203  and  _206
REMARK   86  A    between atoms: _206  and  _207
REMARK   87  A    between atoms: _210  and  _212
REMARK   88  A    between atoms: _212  and  _213
REMARK   89  A    between atoms: _212  and  _215
REMARK   90  A    between atoms: _215  and  _216
REMARK   91  A    between atoms: _219  and  _221
REMARK   92  A    between atoms: _221  and  _222
REMARK   93  A    between atoms: _221  and  _224
REMARK   94  A    between atoms: _224  and  _225
REMARK   95  A    between atoms: _228  and  _230
REMARK   96  A    between atoms: _230  and  _231
REMARK   97  A    between atoms: _230  and  _233
REMARK   98  A    between atoms: _235  and  _237
REMARK   99  A    between atoms: _237  and  _238
REMARK  100  A    between atoms: _237  and  _240
REMARK  101  A    between atoms: _240  and  _241
REMARK  102  A    between atoms: _241  and  _242
REMARK  103  A    between atoms: _242  and  _243
REMARK  104  A    between atoms: _252  and  _254
REMARK  105  A    between atoms: _254  and  _255
REMARK  106  A    between atoms: _254  and  _257
REMARK  107  A    between atoms: _257  and  _258
REMARK  108  A    between atoms: _258  and  _259
REMARK  109  A    between atoms: _259  and  _260
REMARK  110  A    between atoms: _260  and  _261
REMARK  111  A    between atoms: _265  and  _267
REMARK  112  A    between atoms: _267  and  _268
REMARK  113  A    between atoms: _267  and  _270
REMARK  114  A    between atoms: _270  and  _271
REMARK  115  A    between atoms: _274  and  _276
REMARK  116  A    between atoms: _276  and  _277
REMARK  117  A    between atoms: _281  and  _282
REMARK  118  A    between atoms: _287  and  _289
REMARK  119  A    between atoms: _289  and  _290
REMARK  120  A    between atoms: _289  and  _292
REMARK  121  A    between atoms: _295  and  _297
REMARK  122  A    between atoms: _297  and  _298
REMARK  123  A    between atoms: _297  and  _300
REMARK  124  A    between atoms: _300  and  _301
REMARK  125  A    between atoms: _306  and  _308
REMARK  126  A    between atoms: _308  and  _309
REMARK  127  A    between atoms: _308  and  _311
REMARK  128  A    between atoms: _311  and  _312
REMARK  129  A    between atoms: _318  and  _320
REMARK  130  A    between atoms: _320  and  _321
REMARK  131  A    between atoms: _320  and  _323
REMARK  132  A    between atoms: _323  and  _324
REMARK  133  A    between atoms: _327  and  _329
REMARK  134  A    between atoms: _329  and  _330
REMARK  135  A    between atoms: _333  and  _335
REMARK  136  A    between atoms: _335  and  _336
REMARK  137  A    between atoms: _335  and  _338
REMARK  138  A    between atoms: _338  and  _339
REMARK  139  A    between atoms: _341  and  _343
REMARK  140  A    between atoms: _343  and  _344
REMARK  141  A    between atoms: _343  and  _346
REMARK                            x       y       z     vdW  Elec       q    Type
REMARK                         _______ _______ _______ _____ _____    ______ ____
ROOT
ATOM      1  O   HOH     1      36.855   1.239  16.789  0.00  0.00    +0.000 OA
ENDROOT
TORSDOF 0
REMARK  Name = ../refined-set-2016/4g8v/4g8v_pocket.pdb
REMARK  141 active torsions:
REMARK  status: ('A' for Active; 'I' for Inactive)
REMARK    1  A    between atoms: _1  and  _3
REMARK    2  A    between atoms: _3  and  _4
REMARK    3  A    between atoms: _3  and  _6
REMARK    4  A    between atoms: _6  and  _7
REMARK    5  A    between atoms: _7  and  _8
REMARK    6  A    between atoms: _11  and  _13
REMARK    7  A    between atoms: _13  and  _14
REMARK    8  A    between atoms: _17  and  _19
REMARK    9  A    between atoms: _19  and  _20
REMARK   10  A    between atoms: _19  and  _22
REMARK   11  A    between atoms: _22  and  _23
REMARK   12  A    between atoms: _23  and  _24
REMARK   13  A    between atoms: _24  and  _25
REMARK   14  A    between atoms: _25  and  _26
REMARK   15  A    between atoms: _30  and  _32
REMARK   16  A    between atoms: _32  and  _33
REMARK   17  A    between atoms: _32  and  _35
REMARK   18  A    between atoms: _35  and  _36
REMARK   19  A    between atoms: _42  and  _44
REMARK   20  A    between atoms: _44  and  _45
REMARK   21  A    between atoms: _44  and  _47
REMARK   22  A    between atoms: _47  and  _48
REMARK   23  A    between atoms: _48  and  _49
REMARK   24  A    between atoms: _49  and  _50
REMARK   25  A    between atoms: _59  and  _61
REMARK   26  A    between atoms: _61  and  _62
REMARK   27  A    between atoms: _61  and  _64
REMARK   28  A    between atoms: _64  and  _65
REMARK   29  A    between atoms: _65  and  _66
REMARK   30  A    between atoms: _71  and  _73
REMARK   31  A    between atoms: _73  and  _74
REMARK   32  A    between atoms: _73  and  _76
REMARK   33  A    between atoms: _76  and  _77
REMARK   34  A    between atoms: _82  and  _84
REMARK   35  A    between atoms: _84  and  _85
REMARK   36  A    between atoms: _84  and  _87
REMARK   37  A    between atoms: _87  and  _88
REMARK   38  A    between atoms: _88  and  _89
REMARK   39  A    between atoms: _91  and  _93
REMARK   40  A    between atoms: _93  and  _94
REMARK   41  A    between atoms: _93  and  _96
REMARK   42  A    between atoms: _96  and  _97
REMARK   43  A    between atoms: _100  and  _102
REMARK   44  A    between atoms: _102  and  _103
REMARK   45  A    between atoms: _102  and  _105
REMARK   46  A    between atoms: _105  and  _106
REMARK   47  A    between atoms: _106  and  _107
REMARK   48  A    between atoms: _107  and  _108
REMARK   49  A    between atoms: _117  and  _119
REMARK   50  A    between atoms: _119  and  _120
REMARK   51  A    between atoms: _119  and  _122
REMARK   52  A    between atoms: _122  and  _123
REMARK   53  A    between atoms: _123  and  _124
REMARK   54  A    between atoms: _124  and  _125
REMARK   55  A    between atoms: _125  and  _126
REMARK   56  A    between atoms: _131  and  _132
REMARK   57  A    between atoms: _137  and  _139
REMARK   58  A    between atoms: _139  and  _140
REMARK   59  A    between atoms: _139  and  _142
REMARK   60  A    between atoms: _145  and  _147
REMARK   61  A    between atoms: _147  and  _148
REMARK   62  A    between atoms: _147  and  _150
REMARK   63  A    between atoms: _150  and  _151
REMARK   64  A    between atoms: _156  and  _158
REMARK   65  A    between atoms: _158  and  _159
REMARK   66  A    between atoms: _158  and  _161
REMARK   67  A    between atoms: _161  and  _162
REMARK   68  A    between atoms: _165  and  _167
REMARK   69  A    between atoms: _167  and  _168
REMARK   70  A    between atoms: _167  and  _170
REMARK   71  A    between atoms: _170  and  _171
REMARK   72  A    between atoms: _177  and  _179
REMARK   73  A    between atoms: _179  and  _180
REMARK   74  A    between atoms: _179  and  _182
REMARK   75  A    between atoms: _182  and  _183
REMARK   76  A    between atoms: _183  and  _184
REMARK   77  A    between atoms: _184  and  _185
REMARK   78  A    between atoms: _185  and  _186
REMARK   79  A    between atoms: _190  and  _192
REMARK   80  A    between atoms: _192  and  _193
REMARK   81  A    between atoms: _192  and  _195
REMARK   82  A    between atoms: _195  and  _196
REMARK   83  A    between atoms: _201  and  _203
REMARK   84  A    between atoms: _203  and  _204
REMARK   85  A    between atoms: _203  and  _206
REMARK   86  A    between atoms: _206  and  _207
REMARK   87  A    between atoms: _210  and  _212
REMARK   88  A    between atoms: _212  and  _213
REMARK   89  A    between atoms: _212  and  _215
REMARK   90  A    between atoms: _215  and  _216
REMARK   91  A    between atoms: _219  and  _221
REMARK   92  A    between atoms: _221  and  _222
REMARK   93  A    between atoms: _221  and  _224
REMARK   94  A    between atoms: _224  and  _225
REMARK   95  A    between atoms: _228  and  _230
REMARK   96  A    between atoms: _230  and  _231
REMARK   97  A    between atoms: _230  and  _233
REMARK   98  A    between atoms: _235  and  _237
REMARK   99  A    between atoms: _237  and  _238
REMARK  100  A    between atoms: _237  and  _240
REMARK  101  A    between atoms: _240  and  _241
REMARK  102  A    between atoms: _241  and  _242
REMARK  103  A    between atoms: _242  and  _243
REMARK  104  A    between atoms: _252  and  _254
REMARK  105  A    between atoms: _254  and  _255
REMARK  106  A    between atoms: _254  and  _257
REMARK  107  A    between atoms: _257  and  _258
REMARK  108  A    between atoms: _258  and  _259
REMARK  109  A    between atoms: _259  and  _260
REMARK  110  A    between atoms: _260  and  _261
REMARK  111  A    between atoms: _265  and  _267
REMARK  112  A    between atoms: _267  and  _268
REMARK  113  A    between atoms: _267  and  _270
REMARK  114  A    between atoms: _270  and  _271
REMARK  115  A    between atoms: _274  and  _276
REMARK  116  A    between atoms: _276  and  _277
REMARK  117  A    between atoms: _281  and  _282
REMARK  118  A    between atoms: _287  and  _289
REMARK  119  A    between atoms: _289  and  _290
REMARK  120  A    between atoms: _289  and  _292
REMARK  121  A    between atoms: _295  and  _297
REMARK  122  A    between atoms: _297  and  _298
REMARK  123  A    between atoms: _297  and  _300
REMARK  124  A    between atoms: _300  and  _301
REMARK  125  A    between atoms: _306  and  _308
REMARK  126  A    between atoms: _308  and  _309
REMARK  127  A    between atoms: _308  and  _311
REMARK  128  A    between atoms: _311  and  _312
REMARK  129  A    between atoms: _318  and  _320
REMARK  130  A    between atoms: _320  and  _321
REMARK  131  A    between atoms: _320  and  _323
REMARK  132  A    between atoms: _323  and  _324
REMARK  133  A    between atoms: _327  and  _329
REMARK  134  A    between atoms: _329  and  _330
REMARK  135  A    between atoms: _333  and  _335
REMARK  136  A    between atoms: _335  and  _336
REMARK  137  A    between atoms: _335  and  _338
REMARK  138  A    between atoms: _338  and  _339
REMARK  139  A    between atoms: _341  and  _343
REMARK  140  A    between atoms: _343  and  _344
REMARK  141  A    between atoms: _343  and  _346
REMARK                            x       y       z     vdW  Elec       q    Type
REMARK                         _______ _______ _______ _____ _____    ______ ____
ROOT
ATOM      1  O   HOH     1      31.106 -10.084  10.152  0.00  0.00    +0.000 OA
ENDROOT
TORSDOF 0
REMARK  Name = ../refined-set-2016/4g8v/4g8v_pocket.pdb
REMARK  141 active torsions:
REMARK  status: ('A' for Active; 'I' for Inactive)
REMARK    1  A    between atoms: _1  and  _3
REMARK    2  A    between atoms: _3  and  _4
REMARK    3  A    between atoms: _3  and  _6
REMARK    4  A    between atoms: _6  and  _7
REMARK    5  A    between atoms: _7  and  _8
REMARK    6  A    between atoms: _11  and  _13
REMARK    7  A    between atoms: _13  and  _14
REMARK    8  A    between atoms: _17  and  _19
REMARK    9  A    between atoms: _19  and  _20
REMARK   10  A    between atoms: _19  and  _22
REMARK   11  A    between atoms: _22  and  _23
REMARK   12  A    between atoms: _23  and  _24
REMARK   13  A    between atoms: _24  and  _25
REMARK   14  A    between atoms: _25  and  _26
REMARK   15  A    between atoms: _30  and  _32
REMARK   16  A    between atoms: _32  and  _33
REMARK   17  A    between atoms: _32  and  _35
REMARK   18  A    between atoms: _35  and  _36
REMARK   19  A    between atoms: _42  and  _44
REMARK   20  A    between atoms: _44  and  _45
REMARK   21  A    between atoms: _44  and  _47
REMARK   22  A    between atoms: _47  and  _48
REMARK   23  A    between atoms: _48  and  _49
REMARK   24  A    between atoms: _49  and  _50
REMARK   25  A    between atoms: _59  and  _61
REMARK   26  A    between atoms: _61  and  _62
REMARK   27  A    between atoms: _61  and  _64
REMARK   28  A    between atoms: _64  and  _65
REMARK   29  A    between atoms: _65  and  _66
REMARK   30  A    between atoms: _71  and  _73
REMARK   31  A    between atoms: _73  and  _74
REMARK   32  A    between atoms: _73  and  _76
REMARK   33  A    between atoms: _76  and  _77
REMARK   34  A    between atoms: _82  and  _84
REMARK   35  A    between atoms: _84  and  _85
REMARK   36  A    between atoms: _84  and  _87
REMARK   37  A    between atoms: _87  and  _88
REMARK   38  A    between atoms: _88  and  _89
REMARK   39  A    between atoms: _91  and  _93
REMARK   40  A    between atoms: _93  and  _94
REMARK   41  A    between atoms: _93  and  _96
REMARK   42  A    between atoms: _96  and  _97
REMARK   43  A    between atoms: _100  and  _102
REMARK   44  A    between atoms: _102  and  _103
REMARK   45  A    between atoms: _102  and  _105
REMARK   46  A    between atoms: _105  and  _106
REMARK   47  A    between atoms: _106  and  _107
REMARK   48  A    between atoms: _107  and  _108
REMARK   49  A    between atoms: _117  and  _119
REMARK   50  A    between atoms: _119  and  _120
REMARK   51  A    between atoms: _119  and  _122
REMARK   52  A    between atoms: _122  and  _123
REMARK   53  A    between atoms: _123  and  _124
REMARK   54  A    between atoms: _124  and  _125
REMARK   55  A    between atoms: _125  and  _126
REMARK   56  A    between atoms: _131  and  _132
REMARK   57  A    between atoms: _137  and  _139
REMARK   58  A    between atoms: _139  and  _140
REMARK   59  A    between atoms: _139  and  _142
REMARK   60  A    between atoms: _145  and  _147
REMARK   61  A    between atoms: _147  and  _148
REMARK   62  A    between atoms: _147  and  _150
REMARK   63  A    between atoms: _150  and  _151
REMARK   64  A    between atoms: _156  and  _158
REMARK   65  A    between atoms: _158  and  _159
REMARK   66  A    between atoms: _158  and  _161
REMARK   67  A    between atoms: _161  and  _162
REMARK   68  A    between atoms: _165  and  _167
REMARK   69  A    between atoms: _167  and  _168
REMARK   70  A    between atoms: _167  and  _170
REMARK   71  A    between atoms: _170  and  _171
REMARK   72  A    between atoms: _177  and  _179
REMARK   73  A    between atoms: _179  and  _180
REMARK   74  A    between atoms: _179  and  _182
REMARK   75  A    between atoms: _182  and  _183
REMARK   76  A    between atoms: _183  and  _184
REMARK   77  A    between atoms: _184  and  _185
REMARK   78  A    between atoms: _185  and  _186
REMARK   79  A    between atoms: _190  and  _192
REMARK   80  A    between atoms: _192  and  _193
REMARK   81  A    between atoms: _192  and  _195
REMARK   82  A    between atoms: _195  and  _196
REMARK   83  A    between atoms: _201  and  _203
REMARK   84  A    between atoms: _203  and  _204
REMARK   85  A    between atoms: _203  and  _206
REMARK   86  A    between atoms: _206  and  _207
REMARK   87  A    between atoms: _210  and  _212
REMARK   88  A    between atoms: _212  and  _213
REMARK   89  A    between atoms: _212  and  _215
REMARK   90  A    between atoms: _215  and  _216
REMARK   91  A    between atoms: _219  and  _221
REMARK   92  A    between atoms: _221  and  _222
REMARK   93  A    between atoms: _221  and  _224
REMARK   94  A    between atoms: _224  and  _225
REMARK   95  A    between atoms: _228  and  _230
REMARK   96  A    between atoms: _230  and  _231
REMARK   97  A    between atoms: _230  and  _233
REMARK   98  A    between atoms: _235  and  _237
REMARK   99  A    between atoms: _237  and  _238
REMARK  100  A    between atoms: _237  and  _240
REMARK  101  A    between atoms: _240  and  _241
REMARK  102  A    between atoms: _241  and  _242
REMARK  103  A    between atoms: _242  and  _243
REMARK  104  A    between atoms: _252  and  _254
REMARK  105  A    between atoms: _254  and  _255
REMARK  106  A    between atoms: _254  and  _257
REMARK  107  A    between atoms: _257  and  _258
REMARK  108  A    between atoms: _258  and  _259
REMARK  109  A    between atoms: _259  and  _260
REMARK  110  A    between atoms: _260  and  _261
REMARK  111  A    between atoms: _265  and  _267
REMARK  112  A    between atoms: _267  and  _268
REMARK  113  A    between atoms: _267  and  _270
REMARK  114  A    between atoms: _270  and  _271
REMARK  115  A    between atoms: _274  and  _276
REMARK  116  A    between atoms: _276  and  _277
REMARK  117  A    between atoms: _281  and  _282
REMARK  118  A    between atoms: _287  and  _289
REMARK  119  A    between atoms: _289  and  _290
REMARK  120  A    between atoms: _289  and  _292
REMARK  121  A    between atoms: _295  and  _297
REMARK  122  A    between atoms: _297  and  _298
REMARK  123  A    between atoms: _297  and  _300
REMARK  124  A    between atoms: _300  and  _301
REMARK  125  A    between atoms: _306  and  _308
REMARK  126  A    between atoms: _308  and  _309
REMARK  127  A    between atoms: _308  and  _311
REMARK  128  A    between atoms: _311  and  _312
REMARK  129  A    between atoms: _318  and  _320
REMARK  130  A    between atoms: _320  and  _321
REMARK  131  A    between atoms: _320  and  _323
REMARK  132  A    between atoms: _323  and  _324
REMARK  133  A    between atoms: _327  and  _329
REMARK  134  A    between atoms: _329  and  _330
REMARK  135  A    between atoms: _333  and  _335
REMARK  136  A    between atoms: _335  and  _336
REMARK  137  A    between atoms: _335  and  _338
REMARK  138  A    between atoms: _338  and  _339
REMARK  139  A    between atoms: _341  and  _343
REMARK  140  A    between atoms: _343  and  _344
REMARK  141  A    between atoms: _343  and  _346
REMARK                            x       y       z     vdW  Elec       q    Type
REMARK                         _______ _______ _______ _____ _____    ______ ____
ROOT
ATOM      1  O   HOH     1      40.816  -0.168  15.007  0.00  0.00    +0.000 OA
ENDROOT
TORSDOF 0
REMARK  Name = ../refined-set-2016/4g8v/4g8v_pocket.pdb
REMARK  141 active torsions:
REMARK  status: ('A' for Active; 'I' for Inactive)
REMARK    1  A    between atoms: _1  and  _3
REMARK    2  A    between atoms: _3  and  _4
REMARK    3  A    between atoms: _3  and  _6
REMARK    4  A    between atoms: _6  and  _7
REMARK    5  A    between atoms: _7  and  _8
REMARK    6  A    between atoms: _11  and  _13
REMARK    7  A    between atoms: _13  and  _14
REMARK    8  A    between atoms: _17  and  _19
REMARK    9  A    between atoms: _19  and  _20
REMARK   10  A    between atoms: _19  and  _22
REMARK   11  A    between atoms: _22  and  _23
REMARK   12  A    between atoms: _23  and  _24
REMARK   13  A    between atoms: _24  and  _25
REMARK   14  A    between atoms: _25  and  _26
REMARK   15  A    between atoms: _30  and  _32
REMARK   16  A    between atoms: _32  and  _33
REMARK   17  A    between atoms: _32  and  _35
REMARK   18  A    between atoms: _35  and  _36
REMARK   19  A    between atoms: _42  and  _44
REMARK   20  A    between atoms: _44  and  _45
REMARK   21  A    between atoms: _44  and  _47
REMARK   22  A    between atoms: _47  and  _48
REMARK   23  A    between atoms: _48  and  _49
REMARK   24  A    between atoms: _49  and  _50
REMARK   25  A    between atoms: _59  and  _61
REMARK   26  A    between atoms: _61  and  _62
REMARK   27  A    between atoms: _61  and  _64
REMARK   28  A    between atoms: _64  and  _65
REMARK   29  A    between atoms: _65  and  _66
REMARK   30  A    between atoms: _71  and  _73
REMARK   31  A    between atoms: _73  and  _74
REMARK   32  A    between atoms: _73  and  _76
REMARK   33  A    between atoms: _76  and  _77
REMARK   34  A    between atoms: _82  and  _84
REMARK   35  A    between atoms: _84  and  _85
REMARK   36  A    between atoms: _84  and  _87
REMARK   37  A    between atoms: _87  and  _88
REMARK   38  A    between atoms: _88  and  _89
REMARK   39  A    between atoms: _91  and  _93
REMARK   40  A    between atoms: _93  and  _94
REMARK   41  A    between atoms: _93  and  _96
REMARK   42  A    between atoms: _96  and  _97
REMARK   43  A    between atoms: _100  and  _102
REMARK   44  A    between atoms: _102  and  _103
REMARK   45  A    between atoms: _102  and  _105
REMARK   46  A    between atoms: _105  and  _106
REMARK   47  A    between atoms: _106  and  _107
REMARK   48  A    between atoms: _107  and  _108
REMARK   49  A    between atoms: _117  and  _119
REMARK   50  A    between atoms: _119  and  _120
REMARK   51  A    between atoms: _119  and  _122
REMARK   52  A    between atoms: _122  and  _123
REMARK   53  A    between atoms: _123  and  _124
REMARK   54  A    between atoms: _124  and  _125
REMARK   55  A    between atoms: _125  and  _126
REMARK   56  A    between atoms: _131  and  _132
REMARK   57  A    between atoms: _137  and  _139
REMARK   58  A    between atoms: _139  and  _140
REMARK   59  A    between atoms: _139  and  _142
REMARK   60  A    between atoms: _145  and  _147
REMARK   61  A    between atoms: _147  and  _148
REMARK   62  A    between atoms: _147  and  _150
REMARK   63  A    between atoms: _150  and  _151
REMARK   64  A    between atoms: _156  and  _158
REMARK   65  A    between atoms: _158  and  _159
REMARK   66  A    between atoms: _158  and  _161
REMARK   67  A    between atoms: _161  and  _162
REMARK   68  A    between atoms: _165  and  _167
REMARK   69  A    between atoms: _167  and  _168
REMARK   70  A    between atoms: _167  and  _170
REMARK   71  A    between atoms: _170  and  _171
REMARK   72  A    between atoms: _177  and  _179
REMARK   73  A    between atoms: _179  and  _180
REMARK   74  A    between atoms: _179  and  _182
REMARK   75  A    between atoms: _182  and  _183
REMARK   76  A    between atoms: _183  and  _184
REMARK   77  A    between atoms: _184  and  _185
REMARK   78  A    between atoms: _185  and  _186
REMARK   79  A    between atoms: _190  and  _192
REMARK   80  A    between atoms: _192  and  _193
REMARK   81  A    between atoms: _192  and  _195
REMARK   82  A    between atoms: _195  and  _196
REMARK   83  A    between atoms: _201  and  _203
REMARK   84  A    between atoms: _203  and  _204
REMARK   85  A    between atoms: _203  and  _206
REMARK   86  A    between atoms: _206  and  _207
REMARK   87  A    between atoms: _210  and  _212
REMARK   88  A    between atoms: _212  and  _213
REMARK   89  A    between atoms: _212  and  _215
REMARK   90  A    between atoms: _215  and  _216
REMARK   91  A    between atoms: _219  and  _221
REMARK   92  A    between atoms: _221  and  _222
REMARK   93  A    between atoms: _221  and  _224
REMARK   94  A    between atoms: _224  and  _225
REMARK   95  A    between atoms: _228  and  _230
REMARK   96  A    between atoms: _230  and  _231
REMARK   97  A    between atoms: _230  and  _233
REMARK   98  A    between atoms: _235  and  _237
REMARK   99  A    between atoms: _237  and  _238
REMARK  100  A    between atoms: _237  and  _240
REMARK  101  A    between atoms: _240  and  _241
REMARK  102  A    between atoms: _241  and  _242
REMARK  103  A    between atoms: _242  and  _243
REMARK  104  A    between atoms: _252  and  _254
REMARK  105  A    between atoms: _254  and  _255
REMARK  106  A    between atoms: _254  and  _257
REMARK  107  A    between atoms: _257  and  _258
REMARK  108  A    between atoms: _258  and  _259
REMARK  109  A    between atoms: _259  and  _260
REMARK  110  A    between atoms: _260  and  _261
REMARK  111  A    between atoms: _265  and  _267
REMARK  112  A    between atoms: _267  and  _268
REMARK  113  A    between atoms: _267  and  _270
REMARK  114  A    between atoms: _270  and  _271
REMARK  115  A    between atoms: _274  and  _276
REMARK  116  A    between atoms: _276  and  _277
REMARK  117  A    between atoms: _281  and  _282
REMARK  118  A    between atoms: _287  and  _289
REMARK  119  A    between atoms: _289  and  _290
REMARK  120  A    between atoms: _289  and  _292
REMARK  121  A    between atoms: _295  and  _297
REMARK  122  A    between atoms: _297  and  _298
REMARK  123  A    between atoms: _297  and  _300
REMARK  124  A    between atoms: _300  and  _301
REMARK  125  A    between atoms: _306  and  _308
REMARK  126  A    between atoms: _308  and  _309
REMARK  127  A    between atoms: _308  and  _311
REMARK  128  A    between atoms: _311  and  _312
REMARK  129  A    between atoms: _318  and  _320
REMARK  130  A    between atoms: _320  and  _321
REMARK  131  A    between atoms: _320  and  _323
REMARK  132  A    between atoms: _323  and  _324
REMARK  133  A    between atoms: _327  and  _329
REMARK  134  A    between atoms: _329  and  _330
REMARK  135  A    between atoms: _333  and  _335
REMARK  136  A    between atoms: _335  and  _336
REMARK  137  A    between atoms: _335  and  _338
REMARK  138  A    between atoms: _338  and  _339
REMARK  139  A    between atoms: _341  and  _343
REMARK  140  A    between atoms: _343  and  _344
REMARK  141  A    between atoms: _343  and  _346
REMARK                            x       y       z     vdW  Elec       q    Type
REMARK                         _______ _______ _______ _____ _____    ______ ____
ROOT
ATOM      1  O   HOH     1      39.444  -0.150  13.515  0.00  0.00    +0.000 OA
ENDROOT
TORSDOF 0
REMARK  Name = ../refined-set-2016/4g8v/4g8v_pocket.pdb
REMARK  141 active torsions:
REMARK  status: ('A' for Active; 'I' for Inactive)
REMARK    1  A    between atoms: _1  and  _3
REMARK    2  A    between atoms: _3  and  _4
REMARK    3  A    between atoms: _3  and  _6
REMARK    4  A    between atoms: _6  and  _7
REMARK    5  A    between atoms: _7  and  _8
REMARK    6  A    between atoms: _11  and  _13
REMARK    7  A    between atoms: _13  and  _14
REMARK    8  A    between atoms: _17  and  _19
REMARK    9  A    between atoms: _19  and  _20
REMARK   10  A    between atoms: _19  and  _22
REMARK   11  A    between atoms: _22  and  _23
REMARK   12  A    between atoms: _23  and  _24
REMARK   13  A    between atoms: _24  and  _25
REMARK   14  A    between atoms: _25  and  _26
REMARK   15  A    between atoms: _30  and  _32
REMARK   16  A    between atoms: _32  and  _33
REMARK   17  A    between atoms: _32  and  _35
REMARK   18  A    between atoms: _35  and  _36
REMARK   19  A    between atoms: _42  and  _44
REMARK   20  A    between atoms: _44  and  _45
REMARK   21  A    between atoms: _44  and  _47
REMARK   22  A    between atoms: _47  and  _48
REMARK   23  A    between atoms: _48  and  _49
REMARK   24  A    between atoms: _49  and  _50
REMARK   25  A    between atoms: _59  and  _61
REMARK   26  A    between atoms: _61  and  _62
REMARK   27  A    between atoms: _61  and  _64
REMARK   28  A    between atoms: _64  and  _65
REMARK   29  A    between atoms: _65  and  _66
REMARK   30  A    between atoms: _71  and  _73
REMARK   31  A    between atoms: _73  and  _74
REMARK   32  A    between atoms: _73  and  _76
REMARK   33  A    between atoms: _76  and  _77
REMARK   34  A    between atoms: _82  and  _84
REMARK   35  A    between atoms: _84  and  _85
REMARK   36  A    between atoms: _84  and  _87
REMARK   37  A    between atoms: _87  and  _88
REMARK   38  A    between atoms: _88  and  _89
REMARK   39  A    between atoms: _91  and  _93
REMARK   40  A    between atoms: _93  and  _94
REMARK   41  A    between atoms: _93  and  _96
REMARK   42  A    between atoms: _96  and  _97
REMARK   43  A    between atoms: _100  and  _102
REMARK   44  A    between atoms: _102  and  _103
REMARK   45  A    between atoms: _102  and  _105
REMARK   46  A    between atoms: _105  and  _106
REMARK   47  A    between atoms: _106  and  _107
REMARK   48  A    between atoms: _107  and  _108
REMARK   49  A    between atoms: _117  and  _119
REMARK   50  A    between atoms: _119  and  _120
REMARK   51  A    between atoms: _119  and  _122
REMARK   52  A    between atoms: _122  and  _123
REMARK   53  A    between atoms: _123  and  _124
REMARK   54  A    between atoms: _124  and  _125
REMARK   55  A    between atoms: _125  and  _126
REMARK   56  A    between atoms: _131  and  _132
REMARK   57  A    between atoms: _137  and  _139
REMARK   58  A    between atoms: _139  and  _140
REMARK   59  A    between atoms: _139  and  _142
REMARK   60  A    between atoms: _145  and  _147
REMARK   61  A    between atoms: _147  and  _148
REMARK   62  A    between atoms: _147  and  _150
REMARK   63  A    between atoms: _150  and  _151
REMARK   64  A    between atoms: _156  and  _158
REMARK   65  A    between atoms: _158  and  _159
REMARK   66  A    between atoms: _158  and  _161
REMARK   67  A    between atoms: _161  and  _162
REMARK   68  A    between atoms: _165  and  _167
REMARK   69  A    between atoms: _167  and  _168
REMARK   70  A    between atoms: _167  and  _170
REMARK   71  A    between atoms: _170  and  _171
REMARK   72  A    between atoms: _177  and  _179
REMARK   73  A    between atoms: _179  and  _180
REMARK   74  A    between atoms: _179  and  _182
REMARK   75  A    between atoms: _182  and  _183
REMARK   76  A    between atoms: _183  and  _184
REMARK   77  A    between atoms: _184  and  _185
REMARK   78  A    between atoms: _185  and  _186
REMARK   79  A    between atoms: _190  and  _192
REMARK   80  A    between atoms: _192  and  _193
REMARK   81  A    between atoms: _192  and  _195
REMARK   82  A    between atoms: _195  and  _196
REMARK   83  A    between atoms: _201  and  _203
REMARK   84  A    between atoms: _203  and  _204
REMARK   85  A    between atoms: _203  and  _206
REMARK   86  A    between atoms: _206  and  _207
REMARK   87  A    between atoms: _210  and  _212
REMARK   88  A    between atoms: _212  and  _213
REMARK   89  A    between atoms: _212  and  _215
REMARK   90  A    between atoms: _215  and  _216
REMARK   91  A    between atoms: _219  and  _221
REMARK   92  A    between atoms: _221  and  _222
REMARK   93  A    between atoms: _221  and  _224
REMARK   94  A    between atoms: _224  and  _225
REMARK   95  A    between atoms: _228  and  _230
REMARK   96  A    between atoms: _230  and  _231
REMARK   97  A    between atoms: _230  and  _233
REMARK   98  A    between atoms: _235  and  _237
REMARK   99  A    between atoms: _237  and  _238
REMARK  100  A    between atoms: _237  and  _240
REMARK  101  A    between atoms: _240  and  _241
REMARK  102  A    between atoms: _241  and  _242
REMARK  103  A    between atoms: _242  and  _243
REMARK  104  A    between atoms: _252  and  _254
REMARK  105  A    between atoms: _254  and  _255
REMARK  106  A    between atoms: _254  and  _257
REMARK  107  A    between atoms: _257  and  _258
REMARK  108  A    between atoms: _258  and  _259
REMARK  109  A    between atoms: _259  and  _260
REMARK  110  A    between atoms: _260  and  _261
REMARK  111  A    between atoms: _265  and  _267
REMARK  112  A    between atoms: _267  and  _268
REMARK  113  A    between atoms: _267  and  _270
REMARK  114  A    between atoms: _270  and  _271
REMARK  115  A    between atoms: _274  and  _276
REMARK  116  A    between atoms: _276  and  _277
REMARK  117  A    between atoms: _281  and  _282
REMARK  118  A    between atoms: _287  and  _289
REMARK  119  A    between atoms: _289  and  _290
REMARK  120  A    between atoms: _289  and  _292
REMARK  121  A    between atoms: _295  and  _297
REMARK  122  A    between atoms: _297  and  _298
REMARK  123  A    between atoms: _297  and  _300
REMARK  124  A    between atoms: _300  and  _301
REMARK  125  A    between atoms: _306  and  _308
REMARK  126  A    between atoms: _308  and  _309
REMARK  127  A    between atoms: _308  and  _311
REMARK  128  A    between atoms: _311  and  _312
REMARK  129  A    between atoms: _318  and  _320
REMARK  130  A    between atoms: _320  and  _321
REMARK  131  A    between atoms: _320  and  _323
REMARK  132  A    between atoms: _323  and  _324
REMARK  133  A    between atoms: _327  and  _329
REMARK  134  A    between atoms: _329  and  _330
REMARK  135  A    between atoms: _333  and  _335
REMARK  136  A    between atoms: _335  and  _336
REMARK  137  A    between atoms: _335  and  _338
REMARK  138  A    between atoms: _338  and  _339
REMARK  139  A    between atoms: _341  and  _343
REMARK  140  A    between atoms: _343  and  _344
REMARK  141  A    between atoms: _343  and  _346
REMARK                            x       y       z     vdW  Elec       q    Type
REMARK                         _______ _______ _______ _____ _____    ______ ____
ROOT
ATOM      1  O   HOH     1      33.993   5.947  12.505  0.00  0.00    +0.000 OA
ENDROOT
TORSDOF 0
