REMARK  Name = ../refined-set-2016/3jrx/3jrx_pocket.pdb
REMARK  219 active torsions:
REMARK  status: ('A' for Active; 'I' for Inactive)
REMARK    1  A    between atoms: _1  and  _3
REMARK    2  A    between atoms: _3  and  _4
REMARK    3  A    between atoms: _6  and  _8
REMARK    4  A    between atoms: _8  and  _9
REMARK    5  A    between atoms: _8  and  _11
REMARK    6  A    between atoms: _11  and  _12
REMARK    7  A    between atoms: _15  and  _17
REMARK    8  A    between atoms: _17  and  _18
REMARK    9  A    between atoms: _21  and  _23
REMARK   10  A    between atoms: _23  and  _24
REMARK   11  A    between atoms: _27  and  _29
REMARK   12  A    between atoms: _29  and  _30
REMARK   13  A    between atoms: _29  and  _32
REMARK   14  A    between atoms: _35  and  _37
REMARK   15  A    between atoms: _37  and  _38
REMARK   16  A    between atoms: _37  and  _40
REMARK   17  A    between atoms: _40  and  _41
REMARK   18  A    between atoms: _41  and  _42
REMARK   19  A    between atoms: _42  and  _43
REMARK   20  A    between atoms: _43  and  _44
REMARK   21  A    between atoms: _48  and  _50
REMARK   22  A    between atoms: _50  and  _51
REMARK   23  A    between atoms: _50  and  _53
REMARK   24  A    between atoms: _55  and  _57
REMARK   25  A    between atoms: _57  and  _58
REMARK   26  A    between atoms: _57  and  _60
REMARK   27  A    between atoms: _60  and  _61
REMARK   28  A    between atoms: _61  and  _62
REMARK   29  A    between atoms: _64  and  _66
REMARK   30  A    between atoms: _66  and  _67
REMARK   31  A    between atoms: _66  and  _69
REMARK   32  A    between atoms: _69  and  _70
REMARK   33  A    between atoms: _70  and  _71
REMARK   34  A    between atoms: _71  and  _72
REMARK   35  A    between atoms: _81  and  _83
REMARK   36  A    between atoms: _83  and  _84
REMARK   37  A    between atoms: _83  and  _86
REMARK   38  A    between atoms: _86  and  _87
REMARK   39  A    between atoms: _89  and  _91
REMARK   40  A    between atoms: _91  and  _92
REMARK   41  A    between atoms: _91  and  _94
REMARK   42  A    between atoms: _94  and  _95
REMARK   43  A    between atoms: _98  and  _100
REMARK   44  A    between atoms: _100  and  _101
REMARK   45  A    between atoms: _100  and  _103
REMARK   46  A    between atoms: _103  and  _104
REMARK   47  A    between atoms: _104  and  _105
REMARK   48  A    between atoms: _105  and  _106
REMARK   49  A    between atoms: _115  and  _117
REMARK   50  A    between atoms: _117  and  _118
REMARK   51  A    between atoms: _117  and  _120
REMARK   52  A    between atoms: _120  and  _121
REMARK   53  A    between atoms: _121  and  _122
REMARK   54  A    between atoms: _122  and  _123
REMARK   55  A    between atoms: _132  and  _134
REMARK   56  A    between atoms: _134  and  _135
REMARK   57  A    between atoms: _134  and  _137
REMARK   58  A    between atoms: _137  and  _138
REMARK   59  A    between atoms: _148  and  _150
REMARK   60  A    between atoms: _150  and  _151
REMARK   61  A    between atoms: _150  and  _153
REMARK   62  A    between atoms: _153  and  _154
REMARK   63  A    between atoms: _154  and  _155
REMARK   64  A    between atoms: _158  and  _160
REMARK   65  A    between atoms: _160  and  _161
REMARK   66  A    between atoms: _160  and  _163
REMARK   67  A    between atoms: _163  and  _164
REMARK   68  A    between atoms: _164  and  _165
REMARK   69  A    between atoms: _168  and  _170
REMARK   70  A    between atoms: _170  and  _171
REMARK   71  A    between atoms: _170  and  _173
REMARK   72  A    between atoms: _173  and  _174
REMARK   73  A    between atoms: _174  and  _175
REMARK   74  A    between atoms: _177  and  _179
REMARK   75  A    between atoms: _179  and  _180
REMARK   76  A    between atoms: _179  and  _182
REMARK   77  A    between atoms: _185  and  _187
REMARK   78  A    between atoms: _187  and  _188
REMARK   79  A    between atoms: _187  and  _190
REMARK   80  A    between atoms: _190  and  _191
REMARK   81  A    between atoms: _191  and  _192
REMARK   82  A    between atoms: _195  and  _197
REMARK   83  A    between atoms: _197  and  _198
REMARK   84  A    between atoms: _197  and  _200
REMARK   85  A    between atoms: _200  and  _201
REMARK   86  A    between atoms: _207  and  _208
REMARK   87  A    between atoms: _213  and  _215
REMARK   88  A    between atoms: _215  and  _216
REMARK   89  A    between atoms: _215  and  _218
REMARK   90  A    between atoms: _220  and  _222
REMARK   91  A    between atoms: _222  and  _223
REMARK   92  A    between atoms: _222  and  _225
REMARK   93  A    between atoms: _225  and  _226
REMARK   94  A    between atoms: _229  and  _231
REMARK   95  A    between atoms: _231  and  _232
REMARK   96  A    between atoms: _231  and  _234
REMARK   97  A    between atoms: _234  and  _235
REMARK   98  A    between atoms: _235  and  _236
REMARK   99  A    between atoms: _239  and  _241
REMARK  100  A    between atoms: _241  and  _242
REMARK  101  A    between atoms: _241  and  _244
REMARK  102  A    between atoms: _244  and  _245
REMARK  103  A    between atoms: _245  and  _246
REMARK  104  A    between atoms: _248  and  _250
REMARK  105  A    between atoms: _250  and  _251
REMARK  106  A    between atoms: _250  and  _253
REMARK  107  A    between atoms: _253  and  _254
REMARK  108  A    between atoms: _257  and  _259
REMARK  109  A    between atoms: _259  and  _260
REMARK  110  A    between atoms: _263  and  _265
REMARK  111  A    between atoms: _265  and  _266
REMARK  112  A    between atoms: _265  and  _268
REMARK  113  A    between atoms: _268  and  _269
REMARK  114  A    between atoms: _272  and  _274
REMARK  115  A    between atoms: _274  and  _275
REMARK  116  A    between atoms: _274  and  _277
REMARK  117  A    between atoms: _280  and  _282
REMARK  118  A    between atoms: _282  and  _283
REMARK  119  A    between atoms: _282  and  _285
REMARK  120  A    between atoms: _285  and  _286
REMARK  121  A    between atoms: _291  and  _293
REMARK  122  A    between atoms: _293  and  _294
REMARK  123  A    between atoms: _293  and  _296
REMARK  124  A    between atoms: _296  and  _297
REMARK  125  A    between atoms: _301  and  _302
REMARK  126  A    between atoms: _307  and  _309
REMARK  127  A    between atoms: _309  and  _310
REMARK  128  A    between atoms: _313  and  _315
REMARK  129  A    between atoms: _315  and  _316
REMARK  130  A    between atoms: _319  and  _321
REMARK  131  A    between atoms: _321  and  _322
REMARK  132  A    between atoms: _321  and  _324
REMARK  133  A    between atoms: _324  and  _325
REMARK  134  A    between atoms: _328  and  _330
REMARK  135  A    between atoms: _330  and  _331
REMARK  136  A    between atoms: _330  and  _333
REMARK  137  A    between atoms: _333  and  _334
REMARK  138  A    between atoms: _334  and  _335
REMARK  139  A    between atoms: _335  and  _336
REMARK  140  A    between atoms: _345  and  _347
REMARK  141  A    between atoms: _347  and  _348
REMARK  142  A    between atoms: _347  and  _350
REMARK  143  A    between atoms: _350  and  _351
REMARK  144  A    between atoms: _356  and  _358
REMARK  145  A    between atoms: _358  and  _359
REMARK  146  A    between atoms: _358  and  _361
REMARK  147  A    between atoms: _364  and  _366
REMARK  148  A    between atoms: _366  and  _367
REMARK  149  A    between atoms: _366  and  _369
REMARK  150  A    between atoms: _369  and  _370
REMARK  151  A    between atoms: _373  and  _375
REMARK  152  A    between atoms: _375  and  _376
REMARK  153  A    between atoms: _379  and  _381
REMARK  154  A    between atoms: _381  and  _382
REMARK  155  A    between atoms: _381  and  _384
REMARK  156  A    between atoms: _387  and  _389
REMARK  157  A    between atoms: _389  and  _390
REMARK  158  A    between atoms: _389  and  _392
REMARK  159  A    between atoms: _392  and  _393
REMARK  160  A    between atoms: _393  and  _394
REMARK  161  A    between atoms: _397  and  _399
REMARK  162  A    between atoms: _399  and  _400
REMARK  163  A    between atoms: _399  and  _402
REMARK  164  A    between atoms: _402  and  _403
REMARK  165  A    between atoms: _408  and  _410
REMARK  166  A    between atoms: _410  and  _411
REMARK  167  A    between atoms: _410  and  _413
REMARK  168  A    between atoms: _413  and  _414
REMARK  169  A    between atoms: _416  and  _418
REMARK  170  A    between atoms: _418  and  _419
REMARK  171  A    between atoms: _418  and  _421
REMARK  172  A    between atoms: _421  and  _422
REMARK  173  A    between atoms: _422  and  _423
REMARK  174  A    between atoms: _423  and  _424
REMARK  175  A    between atoms: _424  and  _425
REMARK  176  A    between atoms: _429  and  _431
REMARK  177  A    between atoms: _431  and  _432
REMARK  178  A    between atoms: _431  and  _434
REMARK  179  A    between atoms: _434  and  _435
REMARK  180  A    between atoms: _440  and  _442
REMARK  181  A    between atoms: _442  and  _443
REMARK  182  A    between atoms: _442  and  _445
REMARK  183  A    between atoms: _448  and  _450
REMARK  184  A    between atoms: _450  and  _451
REMARK  185  A    between atoms: _450  and  _453
REMARK  186  A    between atoms: _453  and  _454
REMARK  187  A    between atoms: _464  and  _466
REMARK  188  A    between atoms: _466  and  _467
REMARK  189  A    between atoms: _469  and  _471
REMARK  190  A    between atoms: _471  and  _472
REMARK  191  A    between atoms: _471  and  _474
REMARK  192  A    between atoms: _474  and  _475
REMARK  193  A    between atoms: _480  and  _481
REMARK  194  A    between atoms: _483  and  _485
REMARK  195  A    between atoms: _485  and  _486
REMARK  196  A    between atoms: _485  and  _488
REMARK  197  A    between atoms: _488  and  _489
REMARK  198  A    between atoms: _494  and  _496
REMARK  199  A    between atoms: _496  and  _497
REMARK  200  A    between atoms: _496  and  _499
REMARK  201  A    between atoms: _501  and  _503
REMARK  202  A    between atoms: _503  and  _504
REMARK  203  A    between atoms: _503  and  _506
REMARK  204  A    between atoms: _506  and  _507
REMARK  205  A    between atoms: _513  and  _515
REMARK  206  A    between atoms: _515  and  _516
REMARK  207  A    between atoms: _515  and  _518
REMARK  208  A    between atoms: _518  and  _519
REMARK  209  A    between atoms: _521  and  _523
REMARK  210  A    between atoms: _523  and  _524
REMARK  211  A    between atoms: _523  and  _526
REMARK  212  A    between atoms: _526  and  _527
REMARK  213  A    between atoms: _537  and  _539
REMARK  214  A    between atoms: _539  and  _540
REMARK  215  A    between atoms: _542  and  _544
REMARK  216  A    between atoms: _544  and  _545
REMARK  217  A    between atoms: _544  and  _547
REMARK  218  A    between atoms: _547  and  _548
REMARK  219  A    between atoms: _548  and  _549
REMARK                            x       y       z     vdW  Elec       q    Type
REMARK                         _______ _______ _______ _____ _____    ______ ____
ROOT
ATOM      1  CA  ARG A   9     -46.972  18.660 -23.509  0.00  0.00    +0.149 C 
ENDROOT
BRANCH   1   3
ATOM      2  C   MET A   8     -46.156  16.834 -24.843  0.00  0.00    +0.241 C 
ATOM      3  N   ARG A   9     -46.565  17.278 -23.661  0.00  0.00    -0.297 N 
ATOM      4  H   ARG A   9     -46.593  16.634 -22.845  0.00  0.00    +0.150 HD
ATOM      5  O   MET A   8     -46.074  17.560 -25.834  0.00  0.00    -0.273 OA
BRANCH   2   6
ATOM      6  CA  MET A   8     -45.773  15.360 -24.927  0.00  0.00    +0.149 C 
BRANCH   6   8
ATOM      7  C   CYS A   7     -43.780  15.498 -23.546  0.00  0.00    +0.242 C 
ATOM      8  N   MET A   8     -44.965  14.946 -23.785  0.00  0.00    -0.297 N 
ATOM      9  H   MET A   8     -45.322  14.206 -23.147  0.00  0.00    +0.150 HD
ATOM     10  O   CYS A   7     -43.296  16.371 -24.264  0.00  0.00    -0.273 OA
BRANCH   7  11
ATOM     11  CA  CYS A   7     -43.027  14.993 -22.309  0.00  0.00    +0.160 C 
BRANCH  11  13
ATOM     12  C   LYS A   6     -44.379  16.214 -20.695  0.00  0.00    +0.241 C 
ATOM     13  N   CYS A   7     -43.857  15.068 -21.115  0.00  0.00    -0.296 N 
ATOM     14  H   CYS A   7     -44.046  14.199 -20.576  0.00  0.00    +0.150 HD
ATOM     15  O   LYS A   6     -44.194  17.286 -21.277  0.00  0.00    -0.273 OA
BRANCH  12  16
ATOM     16  CA  LYS A   6     -45.224  16.144 -19.419  0.00  0.00    +0.149 C 
BRANCH  16  18
ATOM     17  C   VAL A   5     -47.120  14.995 -20.417  0.00  0.00    +0.241 C 
ATOM     18  N   LYS A   6     -46.207  15.077 -19.456  0.00  0.00    -0.297 N 
ATOM     19  H   LYS A   6     -46.196  14.355 -18.708  0.00  0.00    +0.150 HD
ATOM     20  O   VAL A   5     -47.199  15.805 -21.339  0.00  0.00    -0.273 OA
BRANCH  17  21
ATOM     21  CA  VAL A   5     -48.078  13.808 -20.331  0.00  0.00    +0.149 C 
BRANCH  21  23
ATOM     22  C   ALA A   4     -46.426  12.148 -21.007  0.00  0.00    +0.241 C 
ATOM     23  N   VAL A   5     -47.284  12.601 -20.097  0.00  0.00    -0.297 N 
ATOM     24  H   VAL A   5     -47.393  12.086 -19.200  0.00  0.00    +0.150 HD
ATOM     25  O   ALA A   4     -46.243  12.699 -22.100  0.00  0.00    -0.273 OA
BRANCH  22  26
ATOM     26  CA  ALA A   4     -45.654  10.885 -20.643  0.00  0.00    +0.149 C 
ATOM     27  CB  ALA A   4     -46.500   9.631 -20.958  0.00  0.00    +0.031 C 
BRANCH  26  29
ATOM     28  C   ALA A   3     -44.300  11.736 -18.797  0.00  0.00    +0.241 C 
ATOM     29  N   ALA A   4     -45.221  10.877 -19.246  0.00  0.00    -0.297 N 
ATOM     30  H   ALA A   4     -45.638  10.188 -18.588  0.00  0.00    +0.150 HD
ATOM     31  O   ALA A   3     -43.786  12.606 -19.500  0.00  0.00    -0.273 OA
BRANCH  28  32
ATOM     32  CA  ALA A   3     -43.900  11.610 -17.334  0.00  0.00    +0.149 C 
ATOM     33  CB  ALA A   3     -42.992  10.379 -17.155  0.00  0.00    +0.031 C 
BRANCH  32  35
ATOM     34  C   ILE A   2     -46.001  12.477 -16.460  0.00  0.00    +0.241 C 
ATOM     35  N   ALA A   3     -45.069  11.522 -16.467  0.00  0.00    -0.297 N 
ATOM     36  H   ALA A   3     -45.179  10.698 -15.841  0.00  0.00    +0.150 HD
ATOM     37  O   ILE A   2     -45.946  13.467 -17.186  0.00  0.00    -0.273 OA
BRANCH  34  38
ATOM     38  CA  ILE A   2     -47.193  12.287 -15.525  0.00  0.00    +0.148 C 
BRANCH  38  40
ATOM     39  C   GLY A   1     -48.016  10.214 -16.485  0.00  0.00    +0.240 C 
ATOM     40  N   ILE A   2     -47.602  10.899 -15.424  0.00  0.00    -0.297 N 
ATOM     41  H   ILE A   2     -47.570  10.428 -14.497  0.00  0.00    +0.150 HD
ATOM     42  O   GLY A   1     -48.044  10.685 -17.628  0.00  0.00    -0.274 OA
BRANCH  39  43
ATOM     43  CA  GLY A   1     -48.443   8.786 -16.204  0.00  0.00    +0.169 C 
BRANCH  43  44
ATOM     44  N   GLY A   1     -48.199   7.837 -17.272  0.00  0.00    -0.236 NA
ATOM     45  H   GLY A   1     -49.001   7.359 -17.731  0.00  0.00    +0.142 HD
ENDBRANCH  43  44
ENDBRANCH  39  43
ENDBRANCH  38  40
BRANCH  38  46
ATOM     46  CB  ILE A   2     -46.898  12.878 -14.119  0.00  0.00    +0.027 C 
ATOM     47  CG2 ILE A   2     -45.629  12.292 -13.545  0.00  0.00    +0.002 C 
BRANCH  46  48
ATOM     48  CG1 ILE A   2     -46.830  14.403 -14.207  0.00  0.00    +0.002 C 
ATOM     49  CD1 ILE A   2     -48.119  15.023 -14.734  0.00  0.00    +0.000 C 
ENDBRANCH  46  48
ENDBRANCH  38  46
ENDBRANCH  34  38
ENDBRANCH  32  35
ENDBRANCH  28  32
ENDBRANCH  26  29
ENDBRANCH  22  26
ENDBRANCH  21  23
BRANCH  21  50
ATOM     50  CB  VAL A   5     -49.116  14.035 -19.178  0.00  0.00    +0.027 C 
ATOM     51  CG2 VAL A   5     -50.203  12.972 -19.248  0.00  0.00    +0.002 C 
ATOM     52  CG1 VAL A   5     -49.723  15.445 -19.258  0.00  0.00    +0.002 C 
ENDBRANCH  21  50
ENDBRANCH  17  21
ENDBRANCH  16  18
BRANCH  16  53
ATOM     53  CB  LYS A   6     -44.298  15.962 -18.216  0.00  0.00    +0.029 C 
BRANCH  53  54
ATOM     54  CG  LYS A   6     -43.263  17.065 -18.081  0.00  0.00    +0.000 C 
BRANCH  54  55
ATOM     55  CD  LYS A   6     -43.960  18.435 -18.047  0.00  0.00    -0.024 C 
BRANCH  55  56
ATOM     56  CE  LYS A   6     -42.991  19.570 -17.690  0.00  0.00    -0.086 C 
BRANCH  56  57
ATOM     57  NZ  LYS A   6     -41.919  19.719 -18.701  0.00  0.00    +0.380 N 
ATOM     58  HZ1 LYS A   6     -41.287  20.496 -18.422  0.00  0.00    -0.089 HD
ATOM     59  HZ2 LYS A   6     -41.376  18.834 -18.762  0.00  0.00    -0.089 HD
ATOM     60  HZ3 LYS A   6     -42.344  19.931 -19.626  0.00  0.00    -0.089 HD
ENDBRANCH  56  57
ENDBRANCH  55  56
ENDBRANCH  54  55
ENDBRANCH  53  54
ENDBRANCH  16  53
ENDBRANCH  12  16
ENDBRANCH  11  13
BRANCH  11  61
ATOM     61  CB  CYS A   7     -42.564  13.546 -22.520  0.00  0.00    +0.098 C 
ATOM     62  SG  CYS A   7     -41.604  13.292 -24.024  0.00  0.00    -0.080 S 
ENDBRANCH  11  61
ENDBRANCH   7  11
ENDBRANCH   6   8
BRANCH   6  63
ATOM     63  CB  MET A   8     -47.052  14.520 -25.021  0.00  0.00    +0.041 C 
BRANCH  63  64
ATOM     64  CG  MET A   8     -46.809  13.044 -25.291  0.00  0.00    +0.060 C 
BRANCH  64  65
ATOM     65  SD  MET A   8     -48.337  12.068 -25.308  0.00  0.00    -0.139 S 
ATOM     66  CE  MET A   8     -48.772  12.300 -26.926  0.00  0.00    +0.069 C 
ENDBRANCH  64  65
ENDBRANCH  63  64
ENDBRANCH   6  63
ENDBRANCH   2   6
ENDBRANCH   1   3
BRANCH   1  67
ATOM     67  C   ARG A   9     -45.830  19.649 -23.754  0.00  0.00    +0.241 C 
ATOM     68  N   SER A  10     -44.658  19.389 -23.175  0.00  0.00    -0.295 N 
ATOM     69  H   SER A  10     -44.555  18.537 -22.587  0.00  0.00    +0.150 HD
ATOM     70  O   ARG A   9     -46.006  20.624 -24.486  0.00  0.00    -0.273 OA
BRANCH  68  71
ATOM     71  CA  SER A  10     -43.514  20.285 -23.355  0.00  0.00    +0.178 C 
BRANCH  71  72
ATOM     72  C   SER A  10     -43.057  20.402 -24.805  0.00  0.00    +0.243 C 
ATOM     73  O   SER A  10     -42.872  21.507 -25.319  0.00  0.00    -0.273 OA
ATOM     74  N   ILE A  11     -42.879  19.264 -25.466  0.00  0.00    -0.297 N 
ATOM     75  H   ILE A  11     -43.064  18.356 -24.993  0.00  0.00    +0.150 HD
BRANCH  74  76
ATOM     76  CA  ILE A  11     -42.428  19.282 -26.844  0.00  0.00    +0.149 C 
BRANCH  76  77
ATOM     77  C   ILE A  11     -43.487  19.858 -27.778  0.00  0.00    +0.241 C 
ATOM     78  N   ARG A  12     -44.754  19.535 -27.541  0.00  0.00    -0.297 N 
ATOM     79  H   ARG A  12     -44.995  18.889 -26.762  0.00  0.00    +0.150 HD
ATOM     80  O   ILE A  11     -43.161  20.613 -28.699  0.00  0.00    -0.273 OA
BRANCH  78  81
ATOM     81  CA  ARG A  12     -45.804  20.097 -28.387  0.00  0.00    +0.149 C 
BRANCH  81  82
ATOM     82  C   ARG A  12     -45.793  21.628 -28.318  0.00  0.00    +0.241 C 
ATOM     83  N   ARG A  13     -45.610  22.206 -27.128  0.00  0.00    -0.297 N 
ATOM     84  H   ARG A  13     -45.493  21.628 -26.271  0.00  0.00    +0.150 HD
ATOM     85  O   ARG A  12     -45.926  22.287 -29.350  0.00  0.00    -0.273 OA
BRANCH  83  86
ATOM     86  CA  ARG A  13     -45.577  23.659 -27.052  0.00  0.00    +0.149 C 
BRANCH  86  87
ATOM     87  C   ARG A  13     -44.422  24.176 -27.903  0.00  0.00    +0.241 C 
ATOM     88  N   TRP A  14     -43.288  23.480 -27.862  0.00  0.00    -0.298 N 
ATOM     89  H   TRP A  14     -43.219  22.637 -27.257  0.00  0.00    +0.150 HD
ATOM     90  O   ARG A  13     -44.553  25.196 -28.579  0.00  0.00    -0.273 OA
BRANCH  88  91
ATOM     91  CA  TRP A  14     -42.141  23.896 -28.662  0.00  0.00    +0.141 C 
BRANCH  91  92
ATOM     92  C   TRP A  14     -42.489  23.768 -30.157  0.00  0.00    +0.227 C 
ATOM     93  O   TRP A  14     -42.131  24.630 -30.959  0.00  0.00    -0.286 OA
ENDBRANCH  91  92
BRANCH  91  94
ATOM     94  CB  TRP A  14     -40.905  23.049 -28.332  0.00  0.00    +0.056 C 
BRANCH  94  95
ATOM     95  CG  TRP A  14     -39.721  23.351 -29.222  0.00  0.00    -0.002 A 
ATOM     96  CD1 TRP A  14     -38.920  24.461 -29.176  0.00  0.00    +0.068 A 
ATOM     97  NE1 TRP A  14     -38.018  24.436 -30.209  0.00  0.00    -0.352 N 
ATOM     98  HE1 TRP A  14     -37.301  25.164 -30.400  0.00  0.00    +0.166 HD
ATOM     99  CE2 TRP A  14     -38.212  23.299 -30.949  0.00  0.00    +0.056 A 
ATOM    100  CZ2 TRP A  14     -37.542  22.838 -32.091  0.00  0.00    +0.017 A 
ATOM    101  CH2 TRP A  14     -37.949  21.639 -32.631  0.00  0.00    +0.001 A 
ATOM    102  CZ3 TRP A  14     -39.006  20.897 -32.057  0.00  0.00    +0.000 A 
ATOM    103  CE3 TRP A  14     -39.675  21.362 -30.918  0.00  0.00    +0.001 A 
ATOM    104  CD2 TRP A  14     -39.275  22.583 -30.352  0.00  0.00    +0.013 A 
ENDBRANCH  94  95
ENDBRANCH  91  94
ENDBRANCH  88  91
ENDBRANCH  86  87
BRANCH  86 105
ATOM    105  CB  ARG A  13     -45.419  24.173 -25.612  0.00  0.00    +0.033 C 
BRANCH 105 106
ATOM    106  CG  ARG A  13     -44.677  25.527 -25.556  0.00  0.00    +0.045 C 
BRANCH 106 107
ATOM    107  CD  ARG A  13     -45.511  26.776 -25.219  0.00  0.00    +0.174 C 
BRANCH 107 108
ATOM    108  NE  ARG A  13     -46.775  26.955 -25.932  0.00  0.00    -0.265 N 
ATOM    109  HE  ARG A  13     -47.358  26.111 -26.103  0.00  0.00    +0.259 HD
ATOM    110  CZ  ARG A  13     -47.233  28.132 -26.380  0.00  0.00    +0.342 C 
ATOM    111  NH2 ARG A  13     -46.526  29.246 -26.223  0.00  0.00    -0.292 N 
ATOM    112 HH21 ARG A  13     -45.602  29.213 -25.746  0.00  0.00    +0.255 HD
ATOM    113 HH22 ARG A  13     -46.896  30.151 -26.577  0.00  0.00    +0.255 HD
ATOM    114  NH1 ARG A  13     -48.442  28.214 -26.924  0.00  0.00    -0.292 N 
ATOM    115 HH11 ARG A  13     -49.035  27.364 -27.003  0.00  0.00    +0.255 HD
ATOM    116 HH12 ARG A  13     -48.795  29.129 -27.271  0.00  0.00    +0.255 HD
ENDBRANCH 107 108
ENDBRANCH 106 107
ENDBRANCH 105 106
ENDBRANCH  86 105
ENDBRANCH  83  86
ENDBRANCH  81  82
BRANCH  81 117
ATOM    117  CB  ARG A  12     -47.174  19.523 -28.012  0.00  0.00    +0.033 C 
BRANCH 117 118
ATOM    118  CG  ARG A  12     -47.348  18.095 -28.551  0.00  0.00    +0.045 C 
BRANCH 118 119
ATOM    119  CD  ARG A  12     -48.617  17.402 -28.073  0.00  0.00    +0.174 C 
BRANCH 119 120
ATOM    120  NE  ARG A  12     -48.798  16.107 -28.730  0.00  0.00    -0.265 N 
ATOM    121  CZ  ARG A  12     -49.707  15.202 -28.374  0.00  0.00    +0.342 C 
ATOM    122  NH2 ARG A  12     -50.532  15.437 -27.362  0.00  0.00    -0.292 N 
ATOM    123 HH21 ARG A  12     -50.472  16.334 -26.840  0.00  0.00    +0.255 HD
ATOM    124 HH22 ARG A  12     -51.239  14.724 -27.091  0.00  0.00    +0.255 HD
ATOM    125  NH1 ARG A  12     -49.794  14.058 -29.028  0.00  0.00    -0.292 N 
ATOM    126 HH11 ARG A  12     -50.505  13.352 -28.749  0.00  0.00    +0.255 HD
ATOM    127 HH12 ARG A  12     -49.152  13.863 -29.822  0.00  0.00    +0.255 HD
ATOM    128  HE  ARG A  12     -48.174  15.878 -29.530  0.00  0.00    +0.259 HD
ENDBRANCH 119 120
ENDBRANCH 118 119
ENDBRANCH 117 118
ENDBRANCH  81 117
ENDBRANCH  78  81
ENDBRANCH  76  77
BRANCH  76 129
ATOM    129  CB  ILE A  11     -41.964  17.871 -27.286  0.00  0.00    +0.027 C 
ATOM    130  CG2 ILE A  11     -41.690  17.837 -28.809  0.00  0.00    +0.002 C 
BRANCH 129 131
ATOM    131  CG1 ILE A  11     -40.694  17.504 -26.500  0.00  0.00    +0.002 C 
ATOM    132  CD1 ILE A  11     -40.196  16.069 -26.731  0.00  0.00    +0.000 C 
ENDBRANCH 129 131
ENDBRANCH  76 129
ENDBRANCH  74  76
ENDBRANCH  71  72
BRANCH  71 133
ATOM    133  CB  SER A  10     -42.338  19.837 -22.487  0.00  0.00    +0.166 C 
BRANCH 133 134
ATOM    134  OG  SER A  10     -42.617  20.068 -21.116  0.00  0.00    -0.380 OA
ATOM    135  H   SER A  10     -42.775  21.034 -20.971  0.00  0.00    +0.211 HD
ENDBRANCH 133 134
ENDBRANCH  71 133
ENDBRANCH  68  71
ENDBRANCH   1  67
BRANCH   1 136
ATOM    136  CB  ARG A   9     -47.609  18.877 -22.133  0.00  0.00    +0.033 C 
BRANCH 136 137
ATOM    137  CG  ARG A   9     -48.962  19.573 -22.237  0.00  0.00    +0.045 C 
BRANCH 137 138
ATOM    138  CD  ARG A   9     -50.138  18.776 -21.642  0.00  0.00    +0.174 C 
BRANCH 138 139
ATOM    139  NE  ARG A   9     -50.266  19.024 -20.214  0.00  0.00    -0.265 N 
ATOM    140  CZ  ARG A   9     -51.308  18.674 -19.468  0.00  0.00    +0.342 C 
ATOM    141  NH2 ARG A   9     -51.299  18.957 -18.173  0.00  0.00    -0.292 N 
ATOM    142 HH21 ARG A   9     -52.108  18.689 -17.577  0.00  0.00    +0.255 HD
ATOM    143 HH22 ARG A   9     -50.483  19.447 -17.753  0.00  0.00    +0.255 HD
ATOM    144  NH1 ARG A   9     -52.349  18.048 -19.999  0.00  0.00    -0.292 N 
ATOM    145 HH11 ARG A   9     -53.156  17.781 -19.400  0.00  0.00    +0.255 HD
ATOM    146 HH12 ARG A   9     -52.358  17.824 -21.014  0.00  0.00    +0.255 HD
ATOM    147  HE  ARG A   9     -49.480  19.514 -19.740  0.00  0.00    +0.259 HD
ENDBRANCH 138 139
ENDBRANCH 137 138
ENDBRANCH 136 137
ENDBRANCH   1 136
TORSDOF 58
REMARK  Name = ../refined-set-2016/3jrx/3jrx_pocket.pdb
REMARK  219 active torsions:
REMARK  status: ('A' for Active; 'I' for Inactive)
REMARK    1  A    between atoms: _1  and  _3
REMARK    2  A    between atoms: _3  and  _4
REMARK    3  A    between atoms: _6  and  _8
REMARK    4  A    between atoms: _8  and  _9
REMARK    5  A    between atoms: _8  and  _11
REMARK    6  A    between atoms: _11  and  _12
REMARK    7  A    between atoms: _15  and  _17
REMARK    8  A    between atoms: _17  and  _18
REMARK    9  A    between atoms: _21  and  _23
REMARK   10  A    between atoms: _23  and  _24
REMARK   11  A    between atoms: _27  and  _29
REMARK   12  A    between atoms: _29  and  _30
REMARK   13  A    between atoms: _29  and  _32
REMARK   14  A    between atoms: _35  and  _37
REMARK   15  A    between atoms: _37  and  _38
REMARK   16  A    between atoms: _37  and  _40
REMARK   17  A    between atoms: _40  and  _41
REMARK   18  A    between atoms: _41  and  _42
REMARK   19  A    between atoms: _42  and  _43
REMARK   20  A    between atoms: _43  and  _44
REMARK   21  A    between atoms: _48  and  _50
REMARK   22  A    between atoms: _50  and  _51
REMARK   23  A    between atoms: _50  and  _53
REMARK   24  A    between atoms: _55  and  _57
REMARK   25  A    between atoms: _57  and  _58
REMARK   26  A    between atoms: _57  and  _60
REMARK   27  A    between atoms: _60  and  _61
REMARK   28  A    between atoms: _61  and  _62
REMARK   29  A    between atoms: _64  and  _66
REMARK   30  A    between atoms: _66  and  _67
REMARK   31  A    between atoms: _66  and  _69
REMARK   32  A    between atoms: _69  and  _70
REMARK   33  A    between atoms: _70  and  _71
REMARK   34  A    between atoms: _71  and  _72
REMARK   35  A    between atoms: _81  and  _83
REMARK   36  A    between atoms: _83  and  _84
REMARK   37  A    between atoms: _83  and  _86
REMARK   38  A    between atoms: _86  and  _87
REMARK   39  A    between atoms: _89  and  _91
REMARK   40  A    between atoms: _91  and  _92
REMARK   41  A    between atoms: _91  and  _94
REMARK   42  A    between atoms: _94  and  _95
REMARK   43  A    between atoms: _98  and  _100
REMARK   44  A    between atoms: _100  and  _101
REMARK   45  A    between atoms: _100  and  _103
REMARK   46  A    between atoms: _103  and  _104
REMARK   47  A    between atoms: _104  and  _105
REMARK   48  A    between atoms: _105  and  _106
REMARK   49  A    between atoms: _115  and  _117
REMARK   50  A    between atoms: _117  and  _118
REMARK   51  A    between atoms: _117  and  _120
REMARK   52  A    between atoms: _120  and  _121
REMARK   53  A    between atoms: _121  and  _122
REMARK   54  A    between atoms: _122  and  _123
REMARK   55  A    between atoms: _132  and  _134
REMARK   56  A    between atoms: _134  and  _135
REMARK   57  A    between atoms: _134  and  _137
REMARK   58  A    between atoms: _137  and  _138
REMARK   59  A    between atoms: _148  and  _150
REMARK   60  A    between atoms: _150  and  _151
REMARK   61  A    between atoms: _150  and  _153
REMARK   62  A    between atoms: _153  and  _154
REMARK   63  A    between atoms: _154  and  _155
REMARK   64  A    between atoms: _158  and  _160
REMARK   65  A    between atoms: _160  and  _161
REMARK   66  A    between atoms: _160  and  _163
REMARK   67  A    between atoms: _163  and  _164
REMARK   68  A    between atoms: _164  and  _165
REMARK   69  A    between atoms: _168  and  _170
REMARK   70  A    between atoms: _170  and  _171
REMARK   71  A    between atoms: _170  and  _173
REMARK   72  A    between atoms: _173  and  _174
REMARK   73  A    between atoms: _174  and  _175
REMARK   74  A    between atoms: _177  and  _179
REMARK   75  A    between atoms: _179  and  _180
REMARK   76  A    between atoms: _179  and  _182
REMARK   77  A    between atoms: _185  and  _187
REMARK   78  A    between atoms: _187  and  _188
REMARK   79  A    between atoms: _187  and  _190
REMARK   80  A    between atoms: _190  and  _191
REMARK   81  A    between atoms: _191  and  _192
REMARK   82  A    between atoms: _195  and  _197
REMARK   83  A    between atoms: _197  and  _198
REMARK   84  A    between atoms: _197  and  _200
REMARK   85  A    between atoms: _200  and  _201
REMARK   86  A    between atoms: _207  and  _208
REMARK   87  A    between atoms: _213  and  _215
REMARK   88  A    between atoms: _215  and  _216
REMARK   89  A    between atoms: _215  and  _218
REMARK   90  A    between atoms: _220  and  _222
REMARK   91  A    between atoms: _222  and  _223
REMARK   92  A    between atoms: _222  and  _225
REMARK   93  A    between atoms: _225  and  _226
REMARK   94  A    between atoms: _229  and  _231
REMARK   95  A    between atoms: _231  and  _232
REMARK   96  A    between atoms: _231  and  _234
REMARK   97  A    between atoms: _234  and  _235
REMARK   98  A    between atoms: _235  and  _236
REMARK   99  A    between atoms: _239  and  _241
REMARK  100  A    between atoms: _241  and  _242
REMARK  101  A    between atoms: _241  and  _244
REMARK  102  A    between atoms: _244  and  _245
REMARK  103  A    between atoms: _245  and  _246
REMARK  104  A    between atoms: _248  and  _250
REMARK  105  A    between atoms: _250  and  _251
REMARK  106  A    between atoms: _250  and  _253
REMARK  107  A    between atoms: _253  and  _254
REMARK  108  A    between atoms: _257  and  _259
REMARK  109  A    between atoms: _259  and  _260
REMARK  110  A    between atoms: _263  and  _265
REMARK  111  A    between atoms: _265  and  _266
REMARK  112  A    between atoms: _265  and  _268
REMARK  113  A    between atoms: _268  and  _269
REMARK  114  A    between atoms: _272  and  _274
REMARK  115  A    between atoms: _274  and  _275
REMARK  116  A    between atoms: _274  and  _277
REMARK  117  A    between atoms: _280  and  _282
REMARK  118  A    between atoms: _282  and  _283
REMARK  119  A    between atoms: _282  and  _285
REMARK  120  A    between atoms: _285  and  _286
REMARK  121  A    between atoms: _291  and  _293
REMARK  122  A    between atoms: _293  and  _294
REMARK  123  A    between atoms: _293  and  _296
REMARK  124  A    between atoms: _296  and  _297
REMARK  125  A    between atoms: _301  and  _302
REMARK  126  A    between atoms: _307  and  _309
REMARK  127  A    between atoms: _309  and  _310
REMARK  128  A    between atoms: _313  and  _315
REMARK  129  A    between atoms: _315  and  _316
REMARK  130  A    between atoms: _319  and  _321
REMARK  131  A    between atoms: _321  and  _322
REMARK  132  A    between atoms: _321  and  _324
REMARK  133  A    between atoms: _324  and  _325
REMARK  134  A    between atoms: _328  and  _330
REMARK  135  A    between atoms: _330  and  _331
REMARK  136  A    between atoms: _330  and  _333
REMARK  137  A    between atoms: _333  and  _334
REMARK  138  A    between atoms: _334  and  _335
REMARK  139  A    between atoms: _335  and  _336
REMARK  140  A    between atoms: _345  and  _347
REMARK  141  A    between atoms: _347  and  _348
REMARK  142  A    between atoms: _347  and  _350
REMARK  143  A    between atoms: _350  and  _351
REMARK  144  A    between atoms: _356  and  _358
REMARK  145  A    between atoms: _358  and  _359
REMARK  146  A    between atoms: _358  and  _361
REMARK  147  A    between atoms: _364  and  _366
REMARK  148  A    between atoms: _366  and  _367
REMARK  149  A    between atoms: _366  and  _369
REMARK  150  A    between atoms: _369  and  _370
REMARK  151  A    between atoms: _373  and  _375
REMARK  152  A    between atoms: _375  and  _376
REMARK  153  A    between atoms: _379  and  _381
REMARK  154  A    between atoms: _381  and  _382
REMARK  155  A    between atoms: _381  and  _384
REMARK  156  A    between atoms: _387  and  _389
REMARK  157  A    between atoms: _389  and  _390
REMARK  158  A    between atoms: _389  and  _392
REMARK  159  A    between atoms: _392  and  _393
REMARK  160  A    between atoms: _393  and  _394
REMARK  161  A    between atoms: _397  and  _399
REMARK  162  A    between atoms: _399  and  _400
REMARK  163  A    between atoms: _399  and  _402
REMARK  164  A    between atoms: _402  and  _403
REMARK  165  A    between atoms: _408  and  _410
REMARK  166  A    between atoms: _410  and  _411
REMARK  167  A    between atoms: _410  and  _413
REMARK  168  A    between atoms: _413  and  _414
REMARK  169  A    between atoms: _416  and  _418
REMARK  170  A    between atoms: _418  and  _419
REMARK  171  A    between atoms: _418  and  _421
REMARK  172  A    between atoms: _421  and  _422
REMARK  173  A    between atoms: _422  and  _423
REMARK  174  A    between atoms: _423  and  _424
REMARK  175  A    between atoms: _424  and  _425
REMARK  176  A    between atoms: _429  and  _431
REMARK  177  A    between atoms: _431  and  _432
REMARK  178  A    between atoms: _431  and  _434
REMARK  179  A    between atoms: _434  and  _435
REMARK  180  A    between atoms: _440  and  _442
REMARK  181  A    between atoms: _442  and  _443
REMARK  182  A    between atoms: _442  and  _445
REMARK  183  A    between atoms: _448  and  _450
REMARK  184  A    between atoms: _450  and  _451
REMARK  185  A    between atoms: _450  and  _453
REMARK  186  A    between atoms: _453  and  _454
REMARK  187  A    between atoms: _464  and  _466
REMARK  188  A    between atoms: _466  and  _467
REMARK  189  A    between atoms: _469  and  _471
REMARK  190  A    between atoms: _471  and  _472
REMARK  191  A    between atoms: _471  and  _474
REMARK  192  A    between atoms: _474  and  _475
REMARK  193  A    between atoms: _480  and  _481
REMARK  194  A    between atoms: _483  and  _485
REMARK  195  A    between atoms: _485  and  _486
REMARK  196  A    between atoms: _485  and  _488
REMARK  197  A    between atoms: _488  and  _489
REMARK  198  A    between atoms: _494  and  _496
REMARK  199  A    between atoms: _496  and  _497
REMARK  200  A    between atoms: _496  and  _499
REMARK  201  A    between atoms: _501  and  _503
REMARK  202  A    between atoms: _503  and  _504
REMARK  203  A    between atoms: _503  and  _506
REMARK  204  A    between atoms: _506  and  _507
REMARK  205  A    between atoms: _513  and  _515
REMARK  206  A    between atoms: _515  and  _516
REMARK  207  A    between atoms: _515  and  _518
REMARK  208  A    between atoms: _518  and  _519
REMARK  209  A    between atoms: _521  and  _523
REMARK  210  A    between atoms: _523  and  _524
REMARK  211  A    between atoms: _523  and  _526
REMARK  212  A    between atoms: _526  and  _527
REMARK  213  A    between atoms: _537  and  _539
REMARK  214  A    between atoms: _539  and  _540
REMARK  215  A    between atoms: _542  and  _544
REMARK  216  A    between atoms: _544  and  _545
REMARK  217  A    between atoms: _544  and  _547
REMARK  218  A    between atoms: _547  and  _548
REMARK  219  A    between atoms: _548  and  _549
REMARK                            x       y       z     vdW  Elec       q    Type
REMARK                         _______ _______ _______ _____ _____    ______ ____
ROOT
ATOM      1  CA  GLU A   1     -43.512  27.913 -31.322  0.00  0.00    +0.134 C 
ENDROOT
BRANCH   1   2
ATOM      2  N   GLU A   1     -44.372  26.752 -31.180  0.00  0.00    -0.239 NA
ATOM      3  H   GLU A   1     -44.243  26.105 -30.376  0.00  0.00    +0.142 HD
ENDBRANCH   1   2
BRANCH   1   4
ATOM      4  C   GLU A   1     -42.602  27.867 -32.546  0.00  0.00    +0.224 C 
ATOM      5  O   GLU A   1     -42.341  28.902 -33.163  0.00  0.00    -0.287 OA
ENDBRANCH   1   4
BRANCH   1   6
ATOM      6  CB  GLU A   1     -42.676  28.103 -30.064  0.00  0.00    +0.037 C 
BRANCH   6   7
ATOM      7  CG  GLU A   1     -43.479  28.531 -28.849  0.00  0.00    +0.116 C 
BRANCH   7   8
ATOM      8  CD  GLU A   1     -42.651  28.546 -27.568  0.00  0.00    +0.365 C 
ATOM      9  OE2 GLU A   1     -43.242  28.439 -26.465  0.00  0.00    -0.246 OA
ATOM     10  OE1 GLU A   1     -41.407  28.684 -27.663  0.00  0.00    -0.246 OA
ENDBRANCH   7   8
ENDBRANCH   6   7
ENDBRANCH   1   6
TORSDOF 5
REMARK  Name = ../refined-set-2016/3jrx/3jrx_pocket.pdb
REMARK  219 active torsions:
REMARK  status: ('A' for Active; 'I' for Inactive)
REMARK    1  A    between atoms: _1  and  _3
REMARK    2  A    between atoms: _3  and  _4
REMARK    3  A    between atoms: _6  and  _8
REMARK    4  A    between atoms: _8  and  _9
REMARK    5  A    between atoms: _8  and  _11
REMARK    6  A    between atoms: _11  and  _12
REMARK    7  A    between atoms: _15  and  _17
REMARK    8  A    between atoms: _17  and  _18
REMARK    9  A    between atoms: _21  and  _23
REMARK   10  A    between atoms: _23  and  _24
REMARK   11  A    between atoms: _27  and  _29
REMARK   12  A    between atoms: _29  and  _30
REMARK   13  A    between atoms: _29  and  _32
REMARK   14  A    between atoms: _35  and  _37
REMARK   15  A    between atoms: _37  and  _38
REMARK   16  A    between atoms: _37  and  _40
REMARK   17  A    between atoms: _40  and  _41
REMARK   18  A    between atoms: _41  and  _42
REMARK   19  A    between atoms: _42  and  _43
REMARK   20  A    between atoms: _43  and  _44
REMARK   21  A    between atoms: _48  and  _50
REMARK   22  A    between atoms: _50  and  _51
REMARK   23  A    between atoms: _50  and  _53
REMARK   24  A    between atoms: _55  and  _57
REMARK   25  A    between atoms: _57  and  _58
REMARK   26  A    between atoms: _57  and  _60
REMARK   27  A    between atoms: _60  and  _61
REMARK   28  A    between atoms: _61  and  _62
REMARK   29  A    between atoms: _64  and  _66
REMARK   30  A    between atoms: _66  and  _67
REMARK   31  A    between atoms: _66  and  _69
REMARK   32  A    between atoms: _69  and  _70
REMARK   33  A    between atoms: _70  and  _71
REMARK   34  A    between atoms: _71  and  _72
REMARK   35  A    between atoms: _81  and  _83
REMARK   36  A    between atoms: _83  and  _84
REMARK   37  A    between atoms: _83  and  _86
REMARK   38  A    between atoms: _86  and  _87
REMARK   39  A    between atoms: _89  and  _91
REMARK   40  A    between atoms: _91  and  _92
REMARK   41  A    between atoms: _91  and  _94
REMARK   42  A    between atoms: _94  and  _95
REMARK   43  A    between atoms: _98  and  _100
REMARK   44  A    between atoms: _100  and  _101
REMARK   45  A    between atoms: _100  and  _103
REMARK   46  A    between atoms: _103  and  _104
REMARK   47  A    between atoms: _104  and  _105
REMARK   48  A    between atoms: _105  and  _106
REMARK   49  A    between atoms: _115  and  _117
REMARK   50  A    between atoms: _117  and  _118
REMARK   51  A    between atoms: _117  and  _120
REMARK   52  A    between atoms: _120  and  _121
REMARK   53  A    between atoms: _121  and  _122
REMARK   54  A    between atoms: _122  and  _123
REMARK   55  A    between atoms: _132  and  _134
REMARK   56  A    between atoms: _134  and  _135
REMARK   57  A    between atoms: _134  and  _137
REMARK   58  A    between atoms: _137  and  _138
REMARK   59  A    between atoms: _148  and  _150
REMARK   60  A    between atoms: _150  and  _151
REMARK   61  A    between atoms: _150  and  _153
REMARK   62  A    between atoms: _153  and  _154
REMARK   63  A    between atoms: _154  and  _155
REMARK   64  A    between atoms: _158  and  _160
REMARK   65  A    between atoms: _160  and  _161
REMARK   66  A    between atoms: _160  and  _163
REMARK   67  A    between atoms: _163  and  _164
REMARK   68  A    between atoms: _164  and  _165
REMARK   69  A    between atoms: _168  and  _170
REMARK   70  A    between atoms: _170  and  _171
REMARK   71  A    between atoms: _170  and  _173
REMARK   72  A    between atoms: _173  and  _174
REMARK   73  A    between atoms: _174  and  _175
REMARK   74  A    between atoms: _177  and  _179
REMARK   75  A    between atoms: _179  and  _180
REMARK   76  A    between atoms: _179  and  _182
REMARK   77  A    between atoms: _185  and  _187
REMARK   78  A    between atoms: _187  and  _188
REMARK   79  A    between atoms: _187  and  _190
REMARK   80  A    between atoms: _190  and  _191
REMARK   81  A    between atoms: _191  and  _192
REMARK   82  A    between atoms: _195  and  _197
REMARK   83  A    between atoms: _197  and  _198
REMARK   84  A    between atoms: _197  and  _200
REMARK   85  A    between atoms: _200  and  _201
REMARK   86  A    between atoms: _207  and  _208
REMARK   87  A    between atoms: _213  and  _215
REMARK   88  A    between atoms: _215  and  _216
REMARK   89  A    between atoms: _215  and  _218
REMARK   90  A    between atoms: _220  and  _222
REMARK   91  A    between atoms: _222  and  _223
REMARK   92  A    between atoms: _222  and  _225
REMARK   93  A    between atoms: _225  and  _226
REMARK   94  A    between atoms: _229  and  _231
REMARK   95  A    between atoms: _231  and  _232
REMARK   96  A    between atoms: _231  and  _234
REMARK   97  A    between atoms: _234  and  _235
REMARK   98  A    between atoms: _235  and  _236
REMARK   99  A    between atoms: _239  and  _241
REMARK  100  A    between atoms: _241  and  _242
REMARK  101  A    between atoms: _241  and  _244
REMARK  102  A    between atoms: _244  and  _245
REMARK  103  A    between atoms: _245  and  _246
REMARK  104  A    between atoms: _248  and  _250
REMARK  105  A    between atoms: _250  and  _251
REMARK  106  A    between atoms: _250  and  _253
REMARK  107  A    between atoms: _253  and  _254
REMARK  108  A    between atoms: _257  and  _259
REMARK  109  A    between atoms: _259  and  _260
REMARK  110  A    between atoms: _263  and  _265
REMARK  111  A    between atoms: _265  and  _266
REMARK  112  A    between atoms: _265  and  _268
REMARK  113  A    between atoms: _268  and  _269
REMARK  114  A    between atoms: _272  and  _274
REMARK  115  A    between atoms: _274  and  _275
REMARK  116  A    between atoms: _274  and  _277
REMARK  117  A    between atoms: _280  and  _282
REMARK  118  A    between atoms: _282  and  _283
REMARK  119  A    between atoms: _282  and  _285
REMARK  120  A    between atoms: _285  and  _286
REMARK  121  A    between atoms: _291  and  _293
REMARK  122  A    between atoms: _293  and  _294
REMARK  123  A    between atoms: _293  and  _296
REMARK  124  A    between atoms: _296  and  _297
REMARK  125  A    between atoms: _301  and  _302
REMARK  126  A    between atoms: _307  and  _309
REMARK  127  A    between atoms: _309  and  _310
REMARK  128  A    between atoms: _313  and  _315
REMARK  129  A    between atoms: _315  and  _316
REMARK  130  A    between atoms: _319  and  _321
REMARK  131  A    between atoms: _321  and  _322
REMARK  132  A    between atoms: _321  and  _324
REMARK  133  A    between atoms: _324  and  _325
REMARK  134  A    between atoms: _328  and  _330
REMARK  135  A    between atoms: _330  and  _331
REMARK  136  A    between atoms: _330  and  _333
REMARK  137  A    between atoms: _333  and  _334
REMARK  138  A    between atoms: _334  and  _335
REMARK  139  A    between atoms: _335  and  _336
REMARK  140  A    between atoms: _345  and  _347
REMARK  141  A    between atoms: _347  and  _348
REMARK  142  A    between atoms: _347  and  _350
REMARK  143  A    between atoms: _350  and  _351
REMARK  144  A    between atoms: _356  and  _358
REMARK  145  A    between atoms: _358  and  _359
REMARK  146  A    between atoms: _358  and  _361
REMARK  147  A    between atoms: _364  and  _366
REMARK  148  A    between atoms: _366  and  _367
REMARK  149  A    between atoms: _366  and  _369
REMARK  150  A    between atoms: _369  and  _370
REMARK  151  A    between atoms: _373  and  _375
REMARK  152  A    between atoms: _375  and  _376
REMARK  153  A    between atoms: _379  and  _381
REMARK  154  A    between atoms: _381  and  _382
REMARK  155  A    between atoms: _381  and  _384
REMARK  156  A    between atoms: _387  and  _389
REMARK  157  A    between atoms: _389  and  _390
REMARK  158  A    between atoms: _389  and  _392
REMARK  159  A    between atoms: _392  and  _393
REMARK  160  A    between atoms: _393  and  _394
REMARK  161  A    between atoms: _397  and  _399
REMARK  162  A    between atoms: _399  and  _400
REMARK  163  A    between atoms: _399  and  _402
REMARK  164  A    between atoms: _402  and  _403
REMARK  165  A    between atoms: _408  and  _410
REMARK  166  A    between atoms: _410  and  _411
REMARK  167  A    between atoms: _410  and  _413
REMARK  168  A    between atoms: _413  and  _414
REMARK  169  A    between atoms: _416  and  _418
REMARK  170  A    between atoms: _418  and  _419
REMARK  171  A    between atoms: _418  and  _421
REMARK  172  A    between atoms: _421  and  _422
REMARK  173  A    between atoms: _422  and  _423
REMARK  174  A    between atoms: _423  and  _424
REMARK  175  A    between atoms: _424  and  _425
REMARK  176  A    between atoms: _429  and  _431
REMARK  177  A    between atoms: _431  and  _432
REMARK  178  A    between atoms: _431  and  _434
REMARK  179  A    between atoms: _434  and  _435
REMARK  180  A    between atoms: _440  and  _442
REMARK  181  A    between atoms: _442  and  _443
REMARK  182  A    between atoms: _442  and  _445
REMARK  183  A    between atoms: _448  and  _450
REMARK  184  A    between atoms: _450  and  _451
REMARK  185  A    between atoms: _450  and  _453
REMARK  186  A    between atoms: _453  and  _454
REMARK  187  A    between atoms: _464  and  _466
REMARK  188  A    between atoms: _466  and  _467
REMARK  189  A    between atoms: _469  and  _471
REMARK  190  A    between atoms: _471  and  _472
REMARK  191  A    between atoms: _471  and  _474
REMARK  192  A    between atoms: _474  and  _475
REMARK  193  A    between atoms: _480  and  _481
REMARK  194  A    between atoms: _483  and  _485
REMARK  195  A    between atoms: _485  and  _486
REMARK  196  A    between atoms: _485  and  _488
REMARK  197  A    between atoms: _488  and  _489
REMARK  198  A    between atoms: _494  and  _496
REMARK  199  A    between atoms: _496  and  _497
REMARK  200  A    between atoms: _496  and  _499
REMARK  201  A    between atoms: _501  and  _503
REMARK  202  A    between atoms: _503  and  _504
REMARK  203  A    between atoms: _503  and  _506
REMARK  204  A    between atoms: _506  and  _507
REMARK  205  A    between atoms: _513  and  _515
REMARK  206  A    between atoms: _515  and  _516
REMARK  207  A    between atoms: _515  and  _518
REMARK  208  A    between atoms: _518  and  _519
REMARK  209  A    between atoms: _521  and  _523
REMARK  210  A    between atoms: _523  and  _524
REMARK  211  A    between atoms: _523  and  _526
REMARK  212  A    between atoms: _526  and  _527
REMARK  213  A    between atoms: _537  and  _539
REMARK  214  A    between atoms: _539  and  _540
REMARK  215  A    between atoms: _542  and  _544
REMARK  216  A    between atoms: _544  and  _545
REMARK  217  A    between atoms: _544  and  _547
REMARK  218  A    between atoms: _547  and  _548
REMARK  219  A    between atoms: _548  and  _549
REMARK                            x       y       z     vdW  Elec       q    Type
REMARK                         _______ _______ _______ _____ _____    ______ ____
ROOT
ATOM      1  CA  GLU A   1     -48.330  21.612 -32.100  0.00  0.00    +0.134 C 
ENDROOT
BRANCH   1   2
ATOM      2  N   GLU A   1     -48.493  22.322 -33.357  0.00  0.00    -0.239 NA
ATOM      3  H   GLU A   1     -49.352  22.893 -33.491  0.00  0.00    +0.142 HD
ENDBRANCH   1   2
BRANCH   1   4
ATOM      4  C   GLU A   1     -48.009  20.123 -32.278  0.00  0.00    +0.224 C 
ATOM      5  O   GLU A   1     -47.327  19.527 -31.442  0.00  0.00    -0.287 OA
ENDBRANCH   1   4
BRANCH   1   6
ATOM      6  CB  GLU A   1     -49.615  21.767 -31.287  0.00  0.00    +0.037 C 
BRANCH   6   7
ATOM      7  CG  GLU A   1     -49.444  21.604 -29.804  0.00  0.00    +0.116 C 
BRANCH   7   8
ATOM      8  CD  GLU A   1     -50.766  21.394 -29.087  0.00  0.00    +0.365 C 
ATOM      9  OE2 GLU A   1     -50.762  21.356 -27.840  0.00  0.00    -0.246 OA
ATOM     10  OE1 GLU A   1     -51.808  21.257 -29.765  0.00  0.00    -0.246 OA
ENDBRANCH   7   8
ENDBRANCH   6   7
ENDBRANCH   1   6
TORSDOF 5
REMARK  Name = ../refined-set-2016/3jrx/3jrx_pocket.pdb
REMARK  219 active torsions:
REMARK  status: ('A' for Active; 'I' for Inactive)
REMARK    1  A    between atoms: _1  and  _3
REMARK    2  A    between atoms: _3  and  _4
REMARK    3  A    between atoms: _6  and  _8
REMARK    4  A    between atoms: _8  and  _9
REMARK    5  A    between atoms: _8  and  _11
REMARK    6  A    between atoms: _11  and  _12
REMARK    7  A    between atoms: _15  and  _17
REMARK    8  A    between atoms: _17  and  _18
REMARK    9  A    between atoms: _21  and  _23
REMARK   10  A    between atoms: _23  and  _24
REMARK   11  A    between atoms: _27  and  _29
REMARK   12  A    between atoms: _29  and  _30
REMARK   13  A    between atoms: _29  and  _32
REMARK   14  A    between atoms: _35  and  _37
REMARK   15  A    between atoms: _37  and  _38
REMARK   16  A    between atoms: _37  and  _40
REMARK   17  A    between atoms: _40  and  _41
REMARK   18  A    between atoms: _41  and  _42
REMARK   19  A    between atoms: _42  and  _43
REMARK   20  A    between atoms: _43  and  _44
REMARK   21  A    between atoms: _48  and  _50
REMARK   22  A    between atoms: _50  and  _51
REMARK   23  A    between atoms: _50  and  _53
REMARK   24  A    between atoms: _55  and  _57
REMARK   25  A    between atoms: _57  and  _58
REMARK   26  A    between atoms: _57  and  _60
REMARK   27  A    between atoms: _60  and  _61
REMARK   28  A    between atoms: _61  and  _62
REMARK   29  A    between atoms: _64  and  _66
REMARK   30  A    between atoms: _66  and  _67
REMARK   31  A    between atoms: _66  and  _69
REMARK   32  A    between atoms: _69  and  _70
REMARK   33  A    between atoms: _70  and  _71
REMARK   34  A    between atoms: _71  and  _72
REMARK   35  A    between atoms: _81  and  _83
REMARK   36  A    between atoms: _83  and  _84
REMARK   37  A    between atoms: _83  and  _86
REMARK   38  A    between atoms: _86  and  _87
REMARK   39  A    between atoms: _89  and  _91
REMARK   40  A    between atoms: _91  and  _92
REMARK   41  A    between atoms: _91  and  _94
REMARK   42  A    between atoms: _94  and  _95
REMARK   43  A    between atoms: _98  and  _100
REMARK   44  A    between atoms: _100  and  _101
REMARK   45  A    between atoms: _100  and  _103
REMARK   46  A    between atoms: _103  and  _104
REMARK   47  A    between atoms: _104  and  _105
REMARK   48  A    between atoms: _105  and  _106
REMARK   49  A    between atoms: _115  and  _117
REMARK   50  A    between atoms: _117  and  _118
REMARK   51  A    between atoms: _117  and  _120
REMARK   52  A    between atoms: _120  and  _121
REMARK   53  A    between atoms: _121  and  _122
REMARK   54  A    between atoms: _122  and  _123
REMARK   55  A    between atoms: _132  and  _134
REMARK   56  A    between atoms: _134  and  _135
REMARK   57  A    between atoms: _134  and  _137
REMARK   58  A    between atoms: _137  and  _138
REMARK   59  A    between atoms: _148  and  _150
REMARK   60  A    between atoms: _150  and  _151
REMARK   61  A    between atoms: _150  and  _153
REMARK   62  A    between atoms: _153  and  _154
REMARK   63  A    between atoms: _154  and  _155
REMARK   64  A    between atoms: _158  and  _160
REMARK   65  A    between atoms: _160  and  _161
REMARK   66  A    between atoms: _160  and  _163
REMARK   67  A    between atoms: _163  and  _164
REMARK   68  A    between atoms: _164  and  _165
REMARK   69  A    between atoms: _168  and  _170
REMARK   70  A    between atoms: _170  and  _171
REMARK   71  A    between atoms: _170  and  _173
REMARK   72  A    between atoms: _173  and  _174
REMARK   73  A    between atoms: _174  and  _175
REMARK   74  A    between atoms: _177  and  _179
REMARK   75  A    between atoms: _179  and  _180
REMARK   76  A    between atoms: _179  and  _182
REMARK   77  A    between atoms: _185  and  _187
REMARK   78  A    between atoms: _187  and  _188
REMARK   79  A    between atoms: _187  and  _190
REMARK   80  A    between atoms: _190  and  _191
REMARK   81  A    between atoms: _191  and  _192
REMARK   82  A    between atoms: _195  and  _197
REMARK   83  A    between atoms: _197  and  _198
REMARK   84  A    between atoms: _197  and  _200
REMARK   85  A    between atoms: _200  and  _201
REMARK   86  A    between atoms: _207  and  _208
REMARK   87  A    between atoms: _213  and  _215
REMARK   88  A    between atoms: _215  and  _216
REMARK   89  A    between atoms: _215  and  _218
REMARK   90  A    between atoms: _220  and  _222
REMARK   91  A    between atoms: _222  and  _223
REMARK   92  A    between atoms: _222  and  _225
REMARK   93  A    between atoms: _225  and  _226
REMARK   94  A    between atoms: _229  and  _231
REMARK   95  A    between atoms: _231  and  _232
REMARK   96  A    between atoms: _231  and  _234
REMARK   97  A    between atoms: _234  and  _235
REMARK   98  A    between atoms: _235  and  _236
REMARK   99  A    between atoms: _239  and  _241
REMARK  100  A    between atoms: _241  and  _242
REMARK  101  A    between atoms: _241  and  _244
REMARK  102  A    between atoms: _244  and  _245
REMARK  103  A    between atoms: _245  and  _246
REMARK  104  A    between atoms: _248  and  _250
REMARK  105  A    between atoms: _250  and  _251
REMARK  106  A    between atoms: _250  and  _253
REMARK  107  A    between atoms: _253  and  _254
REMARK  108  A    between atoms: _257  and  _259
REMARK  109  A    between atoms: _259  and  _260
REMARK  110  A    between atoms: _263  and  _265
REMARK  111  A    between atoms: _265  and  _266
REMARK  112  A    between atoms: _265  and  _268
REMARK  113  A    between atoms: _268  and  _269
REMARK  114  A    between atoms: _272  and  _274
REMARK  115  A    between atoms: _274  and  _275
REMARK  116  A    between atoms: _274  and  _277
REMARK  117  A    between atoms: _280  and  _282
REMARK  118  A    between atoms: _282  and  _283
REMARK  119  A    between atoms: _282  and  _285
REMARK  120  A    between atoms: _285  and  _286
REMARK  121  A    between atoms: _291  and  _293
REMARK  122  A    between atoms: _293  and  _294
REMARK  123  A    between atoms: _293  and  _296
REMARK  124  A    between atoms: _296  and  _297
REMARK  125  A    between atoms: _301  and  _302
REMARK  126  A    between atoms: _307  and  _309
REMARK  127  A    between atoms: _309  and  _310
REMARK  128  A    between atoms: _313  and  _315
REMARK  129  A    between atoms: _315  and  _316
REMARK  130  A    between atoms: _319  and  _321
REMARK  131  A    between atoms: _321  and  _322
REMARK  132  A    between atoms: _321  and  _324
REMARK  133  A    between atoms: _324  and  _325
REMARK  134  A    between atoms: _328  and  _330
REMARK  135  A    between atoms: _330  and  _331
REMARK  136  A    between atoms: _330  and  _333
REMARK  137  A    between atoms: _333  and  _334
REMARK  138  A    between atoms: _334  and  _335
REMARK  139  A    between atoms: _335  and  _336
REMARK  140  A    between atoms: _345  and  _347
REMARK  141  A    between atoms: _347  and  _348
REMARK  142  A    between atoms: _347  and  _350
REMARK  143  A    between atoms: _350  and  _351
REMARK  144  A    between atoms: _356  and  _358
REMARK  145  A    between atoms: _358  and  _359
REMARK  146  A    between atoms: _358  and  _361
REMARK  147  A    between atoms: _364  and  _366
REMARK  148  A    between atoms: _366  and  _367
REMARK  149  A    between atoms: _366  and  _369
REMARK  150  A    between atoms: _369  and  _370
REMARK  151  A    between atoms: _373  and  _375
REMARK  152  A    between atoms: _375  and  _376
REMARK  153  A    between atoms: _379  and  _381
REMARK  154  A    between atoms: _381  and  _382
REMARK  155  A    between atoms: _381  and  _384
REMARK  156  A    between atoms: _387  and  _389
REMARK  157  A    between atoms: _389  and  _390
REMARK  158  A    between atoms: _389  and  _392
REMARK  159  A    between atoms: _392  and  _393
REMARK  160  A    between atoms: _393  and  _394
REMARK  161  A    between atoms: _397  and  _399
REMARK  162  A    between atoms: _399  and  _400
REMARK  163  A    between atoms: _399  and  _402
REMARK  164  A    between atoms: _402  and  _403
REMARK  165  A    between atoms: _408  and  _410
REMARK  166  A    between atoms: _410  and  _411
REMARK  167  A    between atoms: _410  and  _413
REMARK  168  A    between atoms: _413  and  _414
REMARK  169  A    between atoms: _416  and  _418
REMARK  170  A    between atoms: _418  and  _419
REMARK  171  A    between atoms: _418  and  _421
REMARK  172  A    between atoms: _421  and  _422
REMARK  173  A    between atoms: _422  and  _423
REMARK  174  A    between atoms: _423  and  _424
REMARK  175  A    between atoms: _424  and  _425
REMARK  176  A    between atoms: _429  and  _431
REMARK  177  A    between atoms: _431  and  _432
REMARK  178  A    between atoms: _431  and  _434
REMARK  179  A    between atoms: _434  and  _435
REMARK  180  A    between atoms: _440  and  _442
REMARK  181  A    between atoms: _442  and  _443
REMARK  182  A    between atoms: _442  and  _445
REMARK  183  A    between atoms: _448  and  _450
REMARK  184  A    between atoms: _450  and  _451
REMARK  185  A    between atoms: _450  and  _453
REMARK  186  A    between atoms: _453  and  _454
REMARK  187  A    between atoms: _464  and  _466
REMARK  188  A    between atoms: _466  and  _467
REMARK  189  A    between atoms: _469  and  _471
REMARK  190  A    between atoms: _471  and  _472
REMARK  191  A    between atoms: _471  and  _474
REMARK  192  A    between atoms: _474  and  _475
REMARK  193  A    between atoms: _480  and  _481
REMARK  194  A    between atoms: _483  and  _485
REMARK  195  A    between atoms: _485  and  _486
REMARK  196  A    between atoms: _485  and  _488
REMARK  197  A    between atoms: _488  and  _489
REMARK  198  A    between atoms: _494  and  _496
REMARK  199  A    between atoms: _496  and  _497
REMARK  200  A    between atoms: _496  and  _499
REMARK  201  A    between atoms: _501  and  _503
REMARK  202  A    between atoms: _503  and  _504
REMARK  203  A    between atoms: _503  and  _506
REMARK  204  A    between atoms: _506  and  _507
REMARK  205  A    between atoms: _513  and  _515
REMARK  206  A    between atoms: _515  and  _516
REMARK  207  A    between atoms: _515  and  _518
REMARK  208  A    between atoms: _518  and  _519
REMARK  209  A    between atoms: _521  and  _523
REMARK  210  A    between atoms: _523  and  _524
REMARK  211  A    between atoms: _523  and  _526
REMARK  212  A    between atoms: _526  and  _527
REMARK  213  A    between atoms: _537  and  _539
REMARK  214  A    between atoms: _539  and  _540
REMARK  215  A    between atoms: _542  and  _544
REMARK  216  A    between atoms: _544  and  _545
REMARK  217  A    between atoms: _544  and  _547
REMARK  218  A    between atoms: _547  and  _548
REMARK  219  A    between atoms: _548  and  _549
REMARK                            x       y       z     vdW  Elec       q    Type
REMARK                         _______ _______ _______ _____ _____    ______ ____
ROOT
ATOM      1  CA  MET A   1     -53.100  12.496 -25.921  0.00  0.00    +0.134 C 
ENDROOT
BRANCH   1   2
ATOM      2  N   MET A   1     -53.988  11.406 -25.532  0.00  0.00    -0.239 NA
ATOM      3  H   MET A   1     -53.857  10.975 -24.595  0.00  0.00    +0.142 HD
ENDBRANCH   1   2
BRANCH   1   4
ATOM      4  C   MET A   1     -52.128  12.107 -27.032  0.00  0.00    +0.224 C 
ATOM      5  O   MET A   1     -51.744  12.938 -27.863  0.00  0.00    -0.287 OA
ENDBRANCH   1   4
BRANCH   1   6
ATOM      6  CB  MET A   1     -52.275  12.944 -24.718  0.00  0.00    +0.037 C 
BRANCH   6   7
ATOM      7  CG  MET A   1     -52.751  14.194 -24.025  0.00  0.00    +0.059 C 
BRANCH   7   8
ATOM      8  SD  MET A   1     -51.568  14.631 -22.747  0.00  0.00    -0.139 S 
ATOM      9  CE  MET A   1     -52.474  14.087 -21.282  0.00  0.00    +0.069 C 
ENDBRANCH   7   8
ENDBRANCH   6   7
ENDBRANCH   1   6
TORSDOF 5
REMARK  Name = ../refined-set-2016/3jrx/3jrx_pocket.pdb
REMARK  219 active torsions:
REMARK  status: ('A' for Active; 'I' for Inactive)
REMARK    1  A    between atoms: _1  and  _3
REMARK    2  A    between atoms: _3  and  _4
REMARK    3  A    between atoms: _6  and  _8
REMARK    4  A    between atoms: _8  and  _9
REMARK    5  A    between atoms: _8  and  _11
REMARK    6  A    between atoms: _11  and  _12
REMARK    7  A    between atoms: _15  and  _17
REMARK    8  A    between atoms: _17  and  _18
REMARK    9  A    between atoms: _21  and  _23
REMARK   10  A    between atoms: _23  and  _24
REMARK   11  A    between atoms: _27  and  _29
REMARK   12  A    between atoms: _29  and  _30
REMARK   13  A    between atoms: _29  and  _32
REMARK   14  A    between atoms: _35  and  _37
REMARK   15  A    between atoms: _37  and  _38
REMARK   16  A    between atoms: _37  and  _40
REMARK   17  A    between atoms: _40  and  _41
REMARK   18  A    between atoms: _41  and  _42
REMARK   19  A    between atoms: _42  and  _43
REMARK   20  A    between atoms: _43  and  _44
REMARK   21  A    between atoms: _48  and  _50
REMARK   22  A    between atoms: _50  and  _51
REMARK   23  A    between atoms: _50  and  _53
REMARK   24  A    between atoms: _55  and  _57
REMARK   25  A    between atoms: _57  and  _58
REMARK   26  A    between atoms: _57  and  _60
REMARK   27  A    between atoms: _60  and  _61
REMARK   28  A    between atoms: _61  and  _62
REMARK   29  A    between atoms: _64  and  _66
REMARK   30  A    between atoms: _66  and  _67
REMARK   31  A    between atoms: _66  and  _69
REMARK   32  A    between atoms: _69  and  _70
REMARK   33  A    between atoms: _70  and  _71
REMARK   34  A    between atoms: _71  and  _72
REMARK   35  A    between atoms: _81  and  _83
REMARK   36  A    between atoms: _83  and  _84
REMARK   37  A    between atoms: _83  and  _86
REMARK   38  A    between atoms: _86  and  _87
REMARK   39  A    between atoms: _89  and  _91
REMARK   40  A    between atoms: _91  and  _92
REMARK   41  A    between atoms: _91  and  _94
REMARK   42  A    between atoms: _94  and  _95
REMARK   43  A    between atoms: _98  and  _100
REMARK   44  A    between atoms: _100  and  _101
REMARK   45  A    between atoms: _100  and  _103
REMARK   46  A    between atoms: _103  and  _104
REMARK   47  A    between atoms: _104  and  _105
REMARK   48  A    between atoms: _105  and  _106
REMARK   49  A    between atoms: _115  and  _117
REMARK   50  A    between atoms: _117  and  _118
REMARK   51  A    between atoms: _117  and  _120
REMARK   52  A    between atoms: _120  and  _121
REMARK   53  A    between atoms: _121  and  _122
REMARK   54  A    between atoms: _122  and  _123
REMARK   55  A    between atoms: _132  and  _134
REMARK   56  A    between atoms: _134  and  _135
REMARK   57  A    between atoms: _134  and  _137
REMARK   58  A    between atoms: _137  and  _138
REMARK   59  A    between atoms: _148  and  _150
REMARK   60  A    between atoms: _150  and  _151
REMARK   61  A    between atoms: _150  and  _153
REMARK   62  A    between atoms: _153  and  _154
REMARK   63  A    between atoms: _154  and  _155
REMARK   64  A    between atoms: _158  and  _160
REMARK   65  A    between atoms: _160  and  _161
REMARK   66  A    between atoms: _160  and  _163
REMARK   67  A    between atoms: _163  and  _164
REMARK   68  A    between atoms: _164  and  _165
REMARK   69  A    between atoms: _168  and  _170
REMARK   70  A    between atoms: _170  and  _171
REMARK   71  A    between atoms: _170  and  _173
REMARK   72  A    between atoms: _173  and  _174
REMARK   73  A    between atoms: _174  and  _175
REMARK   74  A    between atoms: _177  and  _179
REMARK   75  A    between atoms: _179  and  _180
REMARK   76  A    between atoms: _179  and  _182
REMARK   77  A    between atoms: _185  and  _187
REMARK   78  A    between atoms: _187  and  _188
REMARK   79  A    between atoms: _187  and  _190
REMARK   80  A    between atoms: _190  and  _191
REMARK   81  A    between atoms: _191  and  _192
REMARK   82  A    between atoms: _195  and  _197
REMARK   83  A    between atoms: _197  and  _198
REMARK   84  A    between atoms: _197  and  _200
REMARK   85  A    between atoms: _200  and  _201
REMARK   86  A    between atoms: _207  and  _208
REMARK   87  A    between atoms: _213  and  _215
REMARK   88  A    between atoms: _215  and  _216
REMARK   89  A    between atoms: _215  and  _218
REMARK   90  A    between atoms: _220  and  _222
REMARK   91  A    between atoms: _222  and  _223
REMARK   92  A    between atoms: _222  and  _225
REMARK   93  A    between atoms: _225  and  _226
REMARK   94  A    between atoms: _229  and  _231
REMARK   95  A    between atoms: _231  and  _232
REMARK   96  A    between atoms: _231  and  _234
REMARK   97  A    between atoms: _234  and  _235
REMARK   98  A    between atoms: _235  and  _236
REMARK   99  A    between atoms: _239  and  _241
REMARK  100  A    between atoms: _241  and  _242
REMARK  101  A    between atoms: _241  and  _244
REMARK  102  A    between atoms: _244  and  _245
REMARK  103  A    between atoms: _245  and  _246
REMARK  104  A    between atoms: _248  and  _250
REMARK  105  A    between atoms: _250  and  _251
REMARK  106  A    between atoms: _250  and  _253
REMARK  107  A    between atoms: _253  and  _254
REMARK  108  A    between atoms: _257  and  _259
REMARK  109  A    between atoms: _259  and  _260
REMARK  110  A    between atoms: _263  and  _265
REMARK  111  A    between atoms: _265  and  _266
REMARK  112  A    between atoms: _265  and  _268
REMARK  113  A    between atoms: _268  and  _269
REMARK  114  A    between atoms: _272  and  _274
REMARK  115  A    between atoms: _274  and  _275
REMARK  116  A    between atoms: _274  and  _277
REMARK  117  A    between atoms: _280  and  _282
REMARK  118  A    between atoms: _282  and  _283
REMARK  119  A    between atoms: _282  and  _285
REMARK  120  A    between atoms: _285  and  _286
REMARK  121  A    between atoms: _291  and  _293
REMARK  122  A    between atoms: _293  and  _294
REMARK  123  A    between atoms: _293  and  _296
REMARK  124  A    between atoms: _296  and  _297
REMARK  125  A    between atoms: _301  and  _302
REMARK  126  A    between atoms: _307  and  _309
REMARK  127  A    between atoms: _309  and  _310
REMARK  128  A    between atoms: _313  and  _315
REMARK  129  A    between atoms: _315  and  _316
REMARK  130  A    between atoms: _319  and  _321
REMARK  131  A    between atoms: _321  and  _322
REMARK  132  A    between atoms: _321  and  _324
REMARK  133  A    between atoms: _324  and  _325
REMARK  134  A    between atoms: _328  and  _330
REMARK  135  A    between atoms: _330  and  _331
REMARK  136  A    between atoms: _330  and  _333
REMARK  137  A    between atoms: _333  and  _334
REMARK  138  A    between atoms: _334  and  _335
REMARK  139  A    between atoms: _335  and  _336
REMARK  140  A    between atoms: _345  and  _347
REMARK  141  A    between atoms: _347  and  _348
REMARK  142  A    between atoms: _347  and  _350
REMARK  143  A    between atoms: _350  and  _351
REMARK  144  A    between atoms: _356  and  _358
REMARK  145  A    between atoms: _358  and  _359
REMARK  146  A    between atoms: _358  and  _361
REMARK  147  A    between atoms: _364  and  _366
REMARK  148  A    between atoms: _366  and  _367
REMARK  149  A    between atoms: _366  and  _369
REMARK  150  A    between atoms: _369  and  _370
REMARK  151  A    between atoms: _373  and  _375
REMARK  152  A    between atoms: _375  and  _376
REMARK  153  A    between atoms: _379  and  _381
REMARK  154  A    between atoms: _381  and  _382
REMARK  155  A    between atoms: _381  and  _384
REMARK  156  A    between atoms: _387  and  _389
REMARK  157  A    between atoms: _389  and  _390
REMARK  158  A    between atoms: _389  and  _392
REMARK  159  A    between atoms: _392  and  _393
REMARK  160  A    between atoms: _393  and  _394
REMARK  161  A    between atoms: _397  and  _399
REMARK  162  A    between atoms: _399  and  _400
REMARK  163  A    between atoms: _399  and  _402
REMARK  164  A    between atoms: _402  and  _403
REMARK  165  A    between atoms: _408  and  _410
REMARK  166  A    between atoms: _410  and  _411
REMARK  167  A    between atoms: _410  and  _413
REMARK  168  A    between atoms: _413  and  _414
REMARK  169  A    between atoms: _416  and  _418
REMARK  170  A    between atoms: _418  and  _419
REMARK  171  A    between atoms: _418  and  _421
REMARK  172  A    between atoms: _421  and  _422
REMARK  173  A    between atoms: _422  and  _423
REMARK  174  A    between atoms: _423  and  _424
REMARK  175  A    between atoms: _424  and  _425
REMARK  176  A    between atoms: _429  and  _431
REMARK  177  A    between atoms: _431  and  _432
REMARK  178  A    between atoms: _431  and  _434
REMARK  179  A    between atoms: _434  and  _435
REMARK  180  A    between atoms: _440  and  _442
REMARK  181  A    between atoms: _442  and  _443
REMARK  182  A    between atoms: _442  and  _445
REMARK  183  A    between atoms: _448  and  _450
REMARK  184  A    between atoms: _450  and  _451
REMARK  185  A    between atoms: _450  and  _453
REMARK  186  A    between atoms: _453  and  _454
REMARK  187  A    between atoms: _464  and  _466
REMARK  188  A    between atoms: _466  and  _467
REMARK  189  A    between atoms: _469  and  _471
REMARK  190  A    between atoms: _471  and  _472
REMARK  191  A    between atoms: _471  and  _474
REMARK  192  A    between atoms: _474  and  _475
REMARK  193  A    between atoms: _480  and  _481
REMARK  194  A    between atoms: _483  and  _485
REMARK  195  A    between atoms: _485  and  _486
REMARK  196  A    between atoms: _485  and  _488
REMARK  197  A    between atoms: _488  and  _489
REMARK  198  A    between atoms: _494  and  _496
REMARK  199  A    between atoms: _496  and  _497
REMARK  200  A    between atoms: _496  and  _499
REMARK  201  A    between atoms: _501  and  _503
REMARK  202  A    between atoms: _503  and  _504
REMARK  203  A    between atoms: _503  and  _506
REMARK  204  A    between atoms: _506  and  _507
REMARK  205  A    between atoms: _513  and  _515
REMARK  206  A    between atoms: _515  and  _516
REMARK  207  A    between atoms: _515  and  _518
REMARK  208  A    between atoms: _518  and  _519
REMARK  209  A    between atoms: _521  and  _523
REMARK  210  A    between atoms: _523  and  _524
REMARK  211  A    between atoms: _523  and  _526
REMARK  212  A    between atoms: _526  and  _527
REMARK  213  A    between atoms: _537  and  _539
REMARK  214  A    between atoms: _539  and  _540
REMARK  215  A    between atoms: _542  and  _544
REMARK  216  A    between atoms: _544  and  _545
REMARK  217  A    between atoms: _544  and  _547
REMARK  218  A    between atoms: _547  and  _548
REMARK  219  A    between atoms: _548  and  _549
REMARK                            x       y       z     vdW  Elec       q    Type
REMARK                         _______ _______ _______ _____ _____    ______ ____
ROOT
ATOM      1  C   MET A   8     -38.330  28.909 -14.118  0.00  0.00    +0.241 C 
ATOM      2  N   ILE A   9     -37.292  28.639 -13.325  0.00  0.00    -0.297 N 
ATOM      3  H   ILE A   9     -37.157  27.679 -12.950  0.00  0.00    +0.150 HD
ATOM      4  O   MET A   8     -38.517  30.029 -14.597  0.00  0.00    -0.273 OA
ENDROOT
BRANCH   2   5
ATOM      5  CA  ILE A   9     -36.347  29.698 -12.987  0.00  0.00    +0.149 C 
BRANCH   5   6
ATOM      6  C   ILE A   9     -35.320  29.971 -14.077  0.00  0.00    +0.241 C 
ATOM      7  O   ILE A   9     -34.649  31.003 -14.055  0.00  0.00    -0.273 OA
ATOM      8  N   ALA A  10     -35.192  29.057 -15.036  0.00  0.00    -0.297 N 
ATOM      9  H   ALA A  10     -35.779  28.199 -15.012  0.00  0.00    +0.150 HD
BRANCH   8  10
ATOM     10  CA  ALA A  10     -34.235  29.248 -16.120  0.00  0.00    +0.149 C 
ATOM     11  CB  ALA A  10     -33.310  28.039 -16.218  0.00  0.00    +0.031 C 
BRANCH  10  12
ATOM     12  C   ALA A  10     -34.924  29.488 -17.463  0.00  0.00    +0.241 C 
ATOM     13  N   ASP A  11     -36.252  29.406 -17.458  0.00  0.00    -0.297 N 
ATOM     14  H   ASP A  11     -36.729  29.214 -16.554  0.00  0.00    +0.150 HD
ATOM     15  O   ALA A  10     -34.266  29.752 -18.468  0.00  0.00    -0.273 OA
BRANCH  13  16
ATOM     16  CA  ASP A  11     -37.081  29.571 -18.656  0.00  0.00    +0.160 C 
BRANCH  16  17
ATOM     17  C   ASP A  11     -36.564  28.709 -19.808  0.00  0.00    +0.241 C 
ATOM     18  N   VAL A  12     -36.243  27.472 -19.469  0.00  0.00    -0.297 N 
ATOM     19  H   VAL A  12     -36.351  27.175 -18.478  0.00  0.00    +0.150 HD
ATOM     20  O   ASP A  11     -36.464  29.135 -20.961  0.00  0.00    -0.273 OA
BRANCH  18  21
ATOM     21  CA  VAL A  12     -35.745  26.521 -20.439  0.00  0.00    +0.149 C 
BRANCH  21  22
ATOM     22  C   VAL A  12     -36.703  25.336 -20.483  0.00  0.00    +0.241 C 
ATOM     23  O   VAL A  12     -37.095  24.800 -19.446  0.00  0.00    -0.273 OA
ATOM     24  N   ASN A  13     -37.090  24.953 -21.693  0.00  0.00    -0.297 N 
ATOM     25  H   ASN A  13     -36.747  25.485 -22.518  0.00  0.00    +0.150 HD
BRANCH  24  26
ATOM     26  CA  ASN A  13     -37.975  23.819 -21.912  0.00  0.00    +0.158 C 
BRANCH  26  27
ATOM     27  C   ASN A  13     -37.056  22.595 -22.028  0.00  0.00    +0.241 C 
ATOM     28  N   LEU A  14     -36.851  21.906 -20.910  0.00  0.00    -0.297 N 
ATOM     29  H   LEU A  14     -37.333  22.201 -20.037  0.00  0.00    +0.150 HD
ATOM     30  O   ASN A  13     -36.544  22.289 -23.105  0.00  0.00    -0.273 OA
BRANCH  28  31
ATOM     31  CA  LEU A  14     -35.969  20.750 -20.879  0.00  0.00    +0.149 C 
BRANCH  31  32
ATOM     32  C   LEU A  14     -36.258  19.632 -21.893  0.00  0.00    +0.244 C 
ATOM     33  N   PRO A  15     -37.498  19.108 -21.927  0.00  0.00    -0.272 N 
ATOM     34  CD  PRO A  15     -38.647  19.364 -21.034  0.00  0.00    +0.094 C 
ATOM     35  CG  PRO A  15     -39.408  18.055 -21.101  0.00  0.00    +0.024 C 
ATOM     36  CB  PRO A  15     -39.261  17.704 -22.604  0.00  0.00    +0.031 C 
ATOM     37  CA  PRO A  15     -37.794  18.037 -22.887  0.00  0.00    +0.152 C 
ATOM     38  O   LEU A  14     -35.361  19.242 -22.654  0.00  0.00    -0.273 OA
BRANCH  37  39
ATOM     39  C   PRO A  15     -37.555  18.442 -24.341  0.00  0.00    +0.241 C 
ATOM     40  N   ALA A  16     -37.871  19.694 -24.668  0.00  0.00    -0.297 N 
ATOM     41  H   ALA A  16     -38.263  20.329 -23.944  0.00  0.00    +0.150 HD
ATOM     42  O   PRO A  15     -37.085  17.630 -25.158  0.00  0.00    -0.273 OA
BRANCH  40  43
ATOM     43  CA  ALA A  16     -37.675  20.188 -26.027  0.00  0.00    +0.149 C 
ATOM     44  CB  ALA A  16     -38.403  21.529 -26.224  0.00  0.00    +0.031 C 
BRANCH  43  45
ATOM     45  C   ALA A  16     -36.179  20.346 -26.273  0.00  0.00    +0.241 C 
ATOM     46  N   ALA A  17     -35.445  20.686 -25.218  0.00  0.00    -0.298 N 
ATOM     47  H   ALA A  17     -35.910  20.844 -24.301  0.00  0.00    +0.150 HD
ATOM     48  O   ALA A  16     -35.697  20.169 -27.395  0.00  0.00    -0.273 OA
BRANCH  46  49
ATOM     49  CA  ALA A  17     -34.001  20.841 -25.323  0.00  0.00    +0.137 C 
ATOM     50  CB  ALA A  17     -33.439  21.412 -24.018  0.00  0.00    +0.030 C 
BRANCH  49  51
ATOM     51  C   ALA A  17     -33.414  19.448 -25.615  0.00  0.00    +0.227 C 
ATOM     52  O   ALA A  17     -32.520  19.286 -26.442  0.00  0.00    -0.286 OA
ENDBRANCH  49  51
ENDBRANCH  46  49
ENDBRANCH  43  45
ENDBRANCH  40  43
ENDBRANCH  37  39
ENDBRANCH  31  32
BRANCH  31  53
ATOM     53  CB  LEU A  14     -35.896  20.192 -19.451  0.00  0.00    +0.029 C 
BRANCH  53  54
ATOM     54  CG  LEU A  14     -35.048  21.125 -18.574  0.00  0.00    +0.002 C 
ATOM     55  CD2 LEU A  14     -35.049  20.676 -17.119  0.00  0.00    +0.000 C 
ATOM     56  CD1 LEU A  14     -33.625  21.165 -19.127  0.00  0.00    +0.000 C 
ENDBRANCH  53  54
ENDBRANCH  31  53
ENDBRANCH  28  31
ENDBRANCH  26  27
BRANCH  26  57
ATOM     57  CB  ASN A  13     -38.748  24.012 -23.211  0.00  0.00    +0.114 C 
BRANCH  57  58
ATOM     58  CG  ASN A  13     -39.838  22.977 -23.404  0.00  0.00    +0.222 C 
ATOM     59  OD1 ASN A  13     -39.672  21.788 -23.080  0.00  0.00    -0.275 OA
ATOM     60  ND2 ASN A  13     -40.959  23.416 -23.959  0.00  0.00    -0.329 N 
ATOM     61 HD21 ASN A  13     -41.743  22.757 -24.139  0.00  0.00    +0.145 HD
ATOM     62 HD22 ASN A  13     -41.055  24.420 -24.214  0.00  0.00    +0.145 HD
ENDBRANCH  57  58
ENDBRANCH  26  57
ENDBRANCH  24  26
ENDBRANCH  21  22
BRANCH  21  63
ATOM     63  CB  VAL A  12     -34.321  26.037 -20.053  0.00  0.00    +0.027 C 
ATOM     64  CG2 VAL A  12     -33.329  27.188 -20.197  0.00  0.00    +0.002 C 
ATOM     65  CG1 VAL A  12     -33.891  24.871 -20.940  0.00  0.00    +0.002 C 
ENDBRANCH  21  63
ENDBRANCH  18  21
ENDBRANCH  16  17
BRANCH  16  66
ATOM     66  CB  ASP A  11     -37.172  31.052 -19.066  0.00  0.00    +0.143 C 
BRANCH  66  67
ATOM     67  CG  ASP A  11     -38.157  31.278 -20.208  0.00  0.00    +0.367 C 
ATOM     68  OD2 ASP A  11     -39.140  30.507 -20.299  0.00  0.00    -0.246 OA
ATOM     69  OD1 ASP A  11     -37.960  32.223 -21.012  0.00  0.00    -0.246 OA
ENDBRANCH  66  67
ENDBRANCH  16  66
ENDBRANCH  13  16
ENDBRANCH  10  12
ENDBRANCH   8  10
ENDBRANCH   5   6
BRANCH   5  70
ATOM     70  CB  ILE A   9     -35.596  29.413 -11.680  0.00  0.00    +0.027 C 
ATOM     71  CG2 ILE A   9     -36.586  29.139 -10.565  0.00  0.00    +0.002 C 
BRANCH  70  72
ATOM     72  CG1 ILE A   9     -34.628  28.243 -11.871  0.00  0.00    +0.002 C 
ATOM     73  CD1 ILE A   9     -33.713  28.017 -10.684  0.00  0.00    +0.000 C 
ENDBRANCH  70  72
ENDBRANCH   5  70
ENDBRANCH   2   5
BRANCH   1  74
ATOM     74  CA  MET A   8     -39.303  27.777 -14.442  0.00  0.00    +0.149 C 
BRANCH  74  76
ATOM     75  C   GLU A   7     -38.013  26.359 -15.961  0.00  0.00    +0.241 C 
ATOM     76  N   MET A   8     -38.662  26.524 -14.808  0.00  0.00    -0.297 N 
ATOM     77  H   MET A   8     -38.712  25.725 -14.144  0.00  0.00    +0.150 HD
ATOM     78  O   GLU A   7     -37.882  27.247 -16.805  0.00  0.00    -0.273 OA
BRANCH  75  79
ATOM     79  CA  GLU A   7     -37.431  24.968 -16.190  0.00  0.00    +0.149 C 
BRANCH  79  82
ATOM     80  C   THR A   6     -35.934  24.999 -14.284  0.00  0.00    +0.243 C 
ATOM     81  O   THR A   6     -35.466  26.078 -14.644  0.00  0.00    -0.273 OA
ATOM     82  N   GLU A   7     -36.896  24.387 -14.965  0.00  0.00    -0.297 N 
ATOM     83  H   GLU A   7     -37.273  23.481 -14.620  0.00  0.00    +0.150 HD
BRANCH  80  84
ATOM     84  CA  THR A   6     -35.429  24.312 -12.996  0.00  0.00    +0.176 C 
BRANCH  84  87
ATOM     85  C   CYS A   5     -37.440  24.542 -11.652  0.00  0.00    +0.242 C 
ATOM     86  O   CYS A   5     -37.395  25.770 -11.679  0.00  0.00    -0.273 OA
ATOM     87  N   THR A   6     -36.540  23.769 -12.245  0.00  0.00    -0.295 N 
ATOM     88  H   THR A   6     -36.636  22.736 -12.167  0.00  0.00    +0.150 HD
BRANCH  85  89
ATOM     89  CA  CYS A   5     -38.545  23.796 -10.911  0.00  0.00    +0.160 C 
BRANCH  89  91
ATOM     90  C   PRO A   4     -39.488  22.969 -12.980  0.00  0.00    +0.241 C 
ATOM     91  N   CYS A   5     -39.000  22.705 -11.768  0.00  0.00    -0.296 N 
ATOM     92  H   CYS A   5     -38.943  21.722 -11.433  0.00  0.00    +0.150 HD
ATOM     93  O   PRO A   4     -39.583  24.116 -13.415  0.00  0.00    -0.273 OA
BRANCH  90  99
ATOM     94  C   HIS A   3     -37.908  20.549 -13.745  0.00  0.00    +0.244 C 
ATOM     95  N   PRO A   4     -39.244  20.528 -13.583  0.00  0.00    -0.272 N 
ATOM     96  CD  PRO A   4     -40.211  19.423 -13.434  0.00  0.00    +0.094 C 
ATOM     97  CG  PRO A   4     -41.441  19.988 -14.097  0.00  0.00    +0.024 C 
ATOM     98  CB  PRO A   4     -41.402  21.428 -13.640  0.00  0.00    +0.031 C 
ATOM     99  CA  PRO A   4     -39.938  21.791 -13.849  0.00  0.00    +0.152 C 
ATOM    100  O   HIS A   3     -37.318  21.569 -14.096  0.00  0.00    -0.273 OA
BRANCH  94 101
ATOM    101  CA  HIS A   3     -37.133  19.257 -13.478  0.00  0.00    +0.155 C 
BRANCH 101 104
ATOM    102  C   GLU A   2     -38.147  18.845 -11.310  0.00  0.00    +0.241 C 
ATOM    103  O   GLU A   2     -37.901  20.009 -10.947  0.00  0.00    -0.273 OA
ATOM    104  N   HIS A   3     -37.820  18.390 -12.524  0.00  0.00    -0.297 N 
ATOM    105  H   HIS A   3     -38.056  17.413 -12.791  0.00  0.00    +0.150 HD
BRANCH 102 106
ATOM    106  CA  GLU A   2     -38.873  17.869 -10.349  0.00  0.00    +0.149 C 
BRANCH 106 108
ATOM    107  C   VAL A   1     -39.955  16.004 -11.547  0.00  0.00    +0.238 C 
ATOM    108  N   GLU A   2     -38.945  16.475 -10.814  0.00  0.00    -0.297 N 
ATOM    109  H   GLU A   2     -38.173  15.827 -10.559  0.00  0.00    +0.150 HD
ATOM    110  O   VAL A   1     -40.904  16.705 -11.913  0.00  0.00    -0.274 OA
BRANCH 107 111
ATOM    111  CA  VAL A   1     -39.883  14.518 -11.954  0.00  0.00    +0.145 C 
BRANCH 111 112
ATOM    112  CB  VAL A   1     -40.785  13.673 -11.013  0.00  0.00    +0.025 C 
ATOM    113  CG2 VAL A   1     -40.332  13.820  -9.558  0.00  0.00    +0.002 C 
ATOM    114  CG1 VAL A   1     -42.239  14.086 -11.178  0.00  0.00    +0.002 C 
ENDBRANCH 111 112
BRANCH 111 115
ATOM    115  N   VAL A   1     -38.526  13.983 -11.983  0.00  0.00    -0.238 NA
ATOM    116  H   VAL A   1     -38.292  13.158 -11.395  0.00  0.00    +0.142 HD
ENDBRANCH 111 115
ENDBRANCH 107 111
ENDBRANCH 106 108
BRANCH 106 117
ATOM    117  CB  GLU A   2     -38.192  17.929  -8.975  0.00  0.00    +0.041 C 
BRANCH 117 118
ATOM    118  CG  GLU A   2     -39.005  17.281  -7.853  0.00  0.00    +0.116 C 
BRANCH 118 119
ATOM    119  CD  GLU A   2     -38.423  15.945  -7.377  0.00  0.00    +0.365 C 
ATOM    120  OE2 GLU A   2     -38.526  15.657  -6.156  0.00  0.00    -0.246 OA
ATOM    121  OE1 GLU A   2     -37.875  15.185  -8.221  0.00  0.00    -0.246 OA
ENDBRANCH 118 119
ENDBRANCH 117 118
ENDBRANCH 106 117
ENDBRANCH 102 106
ENDBRANCH 101 104
BRANCH 101 122
ATOM    122  CB  HIS A   3     -36.863  18.533 -14.808  0.00  0.00    +0.076 C 
BRANCH 122 123
ATOM    123  CG  HIS A   3     -38.097  18.158 -15.567  0.00  0.00    +0.082 A 
ATOM    124  ND1 HIS A   3     -38.889  17.082 -15.222  0.00  0.00    -0.227 NA
ATOM    125  CE1 HIS A   3     -39.899  16.994 -16.069  0.00  0.00    +0.199 A 
ATOM    126  NE2 HIS A   3     -39.795  17.973 -16.950  0.00  0.00    -0.221 NA
ATOM    127  CD2 HIS A   3     -38.678  18.718 -16.658  0.00  0.00    +0.115 A 
ENDBRANCH 122 123
ENDBRANCH 101 122
ENDBRANCH  94 101
ENDBRANCH  90  99
ENDBRANCH  89  91
BRANCH  89 128
ATOM    128  CB  CYS A   5     -37.985  23.273  -9.578  0.00  0.00    +0.098 C 
ATOM    129  SG  CYS A   5     -39.152  22.326  -8.544  0.00  0.00    -0.080 S 
ENDBRANCH  89 128
ENDBRANCH  85  89
ENDBRANCH  84  87
BRANCH  84 130
ATOM    130  CB  THR A   6     -34.431  23.168 -13.306  0.00  0.00    +0.137 C 
ATOM    131  CG2 THR A   6     -33.306  23.638 -14.223  0.00  0.00    +0.034 C 
BRANCH 130 132
ATOM    132  OG1 THR A   6     -33.894  22.672 -12.066  0.00  0.00    -0.382 OA
ATOM    133  HG1 THR A   6     -33.427  23.406 -11.593  0.00  0.00    +0.210 HD
ENDBRANCH 130 132
ENDBRANCH  84 130
ENDBRANCH  80  84
ENDBRANCH  79  82
BRANCH  79 134
ATOM    134  CB  GLU A   7     -38.536  24.089 -16.759  0.00  0.00    +0.041 C 
BRANCH 134 135
ATOM    135  CG  GLU A   7     -38.099  22.746 -17.290  0.00  0.00    +0.116 C 
BRANCH 135 136
ATOM    136  CD  GLU A   7     -39.244  22.067 -17.996  0.00  0.00    +0.365 C 
ATOM    137  OE2 GLU A   7     -40.289  21.868 -17.338  0.00  0.00    -0.246 OA
ATOM    138  OE1 GLU A   7     -39.113  21.752 -19.200  0.00  0.00    -0.246 OA
ENDBRANCH 135 136
ENDBRANCH 134 135
ENDBRANCH  79 134
ENDBRANCH  75  79
ENDBRANCH  74  76
BRANCH  74 139
ATOM    139  CB  MET A   8     -40.255  27.549 -13.266  0.00  0.00    +0.041 C 
BRANCH 139 140
ATOM    140  CG  MET A   8     -41.021  28.789 -12.837  0.00  0.00    +0.060 C 
BRANCH 140 141
ATOM    141  SD  MET A   8     -42.112  29.416 -14.135  0.00  0.00    -0.139 S 
ATOM    142  CE  MET A   8     -43.539  28.349 -13.957  0.00  0.00    +0.069 C 
ENDBRANCH 140 141
ENDBRANCH 139 140
ENDBRANCH  74 139
ENDBRANCH   1  74
TORSDOF 56
REMARK  Name = ../refined-set-2016/3jrx/3jrx_pocket.pdb
REMARK  219 active torsions:
REMARK  status: ('A' for Active; 'I' for Inactive)
REMARK    1  A    between atoms: _1  and  _3
REMARK    2  A    between atoms: _3  and  _4
REMARK    3  A    between atoms: _6  and  _8
REMARK    4  A    between atoms: _8  and  _9
REMARK    5  A    between atoms: _8  and  _11
REMARK    6  A    between atoms: _11  and  _12
REMARK    7  A    between atoms: _15  and  _17
REMARK    8  A    between atoms: _17  and  _18
REMARK    9  A    between atoms: _21  and  _23
REMARK   10  A    between atoms: _23  and  _24
REMARK   11  A    between atoms: _27  and  _29
REMARK   12  A    between atoms: _29  and  _30
REMARK   13  A    between atoms: _29  and  _32
REMARK   14  A    between atoms: _35  and  _37
REMARK   15  A    between atoms: _37  and  _38
REMARK   16  A    between atoms: _37  and  _40
REMARK   17  A    between atoms: _40  and  _41
REMARK   18  A    between atoms: _41  and  _42
REMARK   19  A    between atoms: _42  and  _43
REMARK   20  A    between atoms: _43  and  _44
REMARK   21  A    between atoms: _48  and  _50
REMARK   22  A    between atoms: _50  and  _51
REMARK   23  A    between atoms: _50  and  _53
REMARK   24  A    between atoms: _55  and  _57
REMARK   25  A    between atoms: _57  and  _58
REMARK   26  A    between atoms: _57  and  _60
REMARK   27  A    between atoms: _60  and  _61
REMARK   28  A    between atoms: _61  and  _62
REMARK   29  A    between atoms: _64  and  _66
REMARK   30  A    between atoms: _66  and  _67
REMARK   31  A    between atoms: _66  and  _69
REMARK   32  A    between atoms: _69  and  _70
REMARK   33  A    between atoms: _70  and  _71
REMARK   34  A    between atoms: _71  and  _72
REMARK   35  A    between atoms: _81  and  _83
REMARK   36  A    between atoms: _83  and  _84
REMARK   37  A    between atoms: _83  and  _86
REMARK   38  A    between atoms: _86  and  _87
REMARK   39  A    between atoms: _89  and  _91
REMARK   40  A    between atoms: _91  and  _92
REMARK   41  A    between atoms: _91  and  _94
REMARK   42  A    between atoms: _94  and  _95
REMARK   43  A    between atoms: _98  and  _100
REMARK   44  A    between atoms: _100  and  _101
REMARK   45  A    between atoms: _100  and  _103
REMARK   46  A    between atoms: _103  and  _104
REMARK   47  A    between atoms: _104  and  _105
REMARK   48  A    between atoms: _105  and  _106
REMARK   49  A    between atoms: _115  and  _117
REMARK   50  A    between atoms: _117  and  _118
REMARK   51  A    between atoms: _117  and  _120
REMARK   52  A    between atoms: _120  and  _121
REMARK   53  A    between atoms: _121  and  _122
REMARK   54  A    between atoms: _122  and  _123
REMARK   55  A    between atoms: _132  and  _134
REMARK   56  A    between atoms: _134  and  _135
REMARK   57  A    between atoms: _134  and  _137
REMARK   58  A    between atoms: _137  and  _138
REMARK   59  A    between atoms: _148  and  _150
REMARK   60  A    between atoms: _150  and  _151
REMARK   61  A    between atoms: _150  and  _153
REMARK   62  A    between atoms: _153  and  _154
REMARK   63  A    between atoms: _154  and  _155
REMARK   64  A    between atoms: _158  and  _160
REMARK   65  A    between atoms: _160  and  _161
REMARK   66  A    between atoms: _160  and  _163
REMARK   67  A    between atoms: _163  and  _164
REMARK   68  A    between atoms: _164  and  _165
REMARK   69  A    between atoms: _168  and  _170
REMARK   70  A    between atoms: _170  and  _171
REMARK   71  A    between atoms: _170  and  _173
REMARK   72  A    between atoms: _173  and  _174
REMARK   73  A    between atoms: _174  and  _175
REMARK   74  A    between atoms: _177  and  _179
REMARK   75  A    between atoms: _179  and  _180
REMARK   76  A    between atoms: _179  and  _182
REMARK   77  A    between atoms: _185  and  _187
REMARK   78  A    between atoms: _187  and  _188
REMARK   79  A    between atoms: _187  and  _190
REMARK   80  A    between atoms: _190  and  _191
REMARK   81  A    between atoms: _191  and  _192
REMARK   82  A    between atoms: _195  and  _197
REMARK   83  A    between atoms: _197  and  _198
REMARK   84  A    between atoms: _197  and  _200
REMARK   85  A    between atoms: _200  and  _201
REMARK   86  A    between atoms: _207  and  _208
REMARK   87  A    between atoms: _213  and  _215
REMARK   88  A    between atoms: _215  and  _216
REMARK   89  A    between atoms: _215  and  _218
REMARK   90  A    between atoms: _220  and  _222
REMARK   91  A    between atoms: _222  and  _223
REMARK   92  A    between atoms: _222  and  _225
REMARK   93  A    between atoms: _225  and  _226
REMARK   94  A    between atoms: _229  and  _231
REMARK   95  A    between atoms: _231  and  _232
REMARK   96  A    between atoms: _231  and  _234
REMARK   97  A    between atoms: _234  and  _235
REMARK   98  A    between atoms: _235  and  _236
REMARK   99  A    between atoms: _239  and  _241
REMARK  100  A    between atoms: _241  and  _242
REMARK  101  A    between atoms: _241  and  _244
REMARK  102  A    between atoms: _244  and  _245
REMARK  103  A    between atoms: _245  and  _246
REMARK  104  A    between atoms: _248  and  _250
REMARK  105  A    between atoms: _250  and  _251
REMARK  106  A    between atoms: _250  and  _253
REMARK  107  A    between atoms: _253  and  _254
REMARK  108  A    between atoms: _257  and  _259
REMARK  109  A    between atoms: _259  and  _260
REMARK  110  A    between atoms: _263  and  _265
REMARK  111  A    between atoms: _265  and  _266
REMARK  112  A    between atoms: _265  and  _268
REMARK  113  A    between atoms: _268  and  _269
REMARK  114  A    between atoms: _272  and  _274
REMARK  115  A    between atoms: _274  and  _275
REMARK  116  A    between atoms: _274  and  _277
REMARK  117  A    between atoms: _280  and  _282
REMARK  118  A    between atoms: _282  and  _283
REMARK  119  A    between atoms: _282  and  _285
REMARK  120  A    between atoms: _285  and  _286
REMARK  121  A    between atoms: _291  and  _293
REMARK  122  A    between atoms: _293  and  _294
REMARK  123  A    between atoms: _293  and  _296
REMARK  124  A    between atoms: _296  and  _297
REMARK  125  A    between atoms: _301  and  _302
REMARK  126  A    between atoms: _307  and  _309
REMARK  127  A    between atoms: _309  and  _310
REMARK  128  A    between atoms: _313  and  _315
REMARK  129  A    between atoms: _315  and  _316
REMARK  130  A    between atoms: _319  and  _321
REMARK  131  A    between atoms: _321  and  _322
REMARK  132  A    between atoms: _321  and  _324
REMARK  133  A    between atoms: _324  and  _325
REMARK  134  A    between atoms: _328  and  _330
REMARK  135  A    between atoms: _330  and  _331
REMARK  136  A    between atoms: _330  and  _333
REMARK  137  A    between atoms: _333  and  _334
REMARK  138  A    between atoms: _334  and  _335
REMARK  139  A    between atoms: _335  and  _336
REMARK  140  A    between atoms: _345  and  _347
REMARK  141  A    between atoms: _347  and  _348
REMARK  142  A    between atoms: _347  and  _350
REMARK  143  A    between atoms: _350  and  _351
REMARK  144  A    between atoms: _356  and  _358
REMARK  145  A    between atoms: _358  and  _359
REMARK  146  A    between atoms: _358  and  _361
REMARK  147  A    between atoms: _364  and  _366
REMARK  148  A    between atoms: _366  and  _367
REMARK  149  A    between atoms: _366  and  _369
REMARK  150  A    between atoms: _369  and  _370
REMARK  151  A    between atoms: _373  and  _375
REMARK  152  A    between atoms: _375  and  _376
REMARK  153  A    between atoms: _379  and  _381
REMARK  154  A    between atoms: _381  and  _382
REMARK  155  A    between atoms: _381  and  _384
REMARK  156  A    between atoms: _387  and  _389
REMARK  157  A    between atoms: _389  and  _390
REMARK  158  A    between atoms: _389  and  _392
REMARK  159  A    between atoms: _392  and  _393
REMARK  160  A    between atoms: _393  and  _394
REMARK  161  A    between atoms: _397  and  _399
REMARK  162  A    between atoms: _399  and  _400
REMARK  163  A    between atoms: _399  and  _402
REMARK  164  A    between atoms: _402  and  _403
REMARK  165  A    between atoms: _408  and  _410
REMARK  166  A    between atoms: _410  and  _411
REMARK  167  A    between atoms: _410  and  _413
REMARK  168  A    between atoms: _413  and  _414
REMARK  169  A    between atoms: _416  and  _418
REMARK  170  A    between atoms: _418  and  _419
REMARK  171  A    between atoms: _418  and  _421
REMARK  172  A    between atoms: _421  and  _422
REMARK  173  A    between atoms: _422  and  _423
REMARK  174  A    between atoms: _423  and  _424
REMARK  175  A    between atoms: _424  and  _425
REMARK  176  A    between atoms: _429  and  _431
REMARK  177  A    between atoms: _431  and  _432
REMARK  178  A    between atoms: _431  and  _434
REMARK  179  A    between atoms: _434  and  _435
REMARK  180  A    between atoms: _440  and  _442
REMARK  181  A    between atoms: _442  and  _443
REMARK  182  A    between atoms: _442  and  _445
REMARK  183  A    between atoms: _448  and  _450
REMARK  184  A    between atoms: _450  and  _451
REMARK  185  A    between atoms: _450  and  _453
REMARK  186  A    between atoms: _453  and  _454
REMARK  187  A    between atoms: _464  and  _466
REMARK  188  A    between atoms: _466  and  _467
REMARK  189  A    between atoms: _469  and  _471
REMARK  190  A    between atoms: _471  and  _472
REMARK  191  A    between atoms: _471  and  _474
REMARK  192  A    between atoms: _474  and  _475
REMARK  193  A    between atoms: _480  and  _481
REMARK  194  A    between atoms: _483  and  _485
REMARK  195  A    between atoms: _485  and  _486
REMARK  196  A    between atoms: _485  and  _488
REMARK  197  A    between atoms: _488  and  _489
REMARK  198  A    between atoms: _494  and  _496
REMARK  199  A    between atoms: _496  and  _497
REMARK  200  A    between atoms: _496  and  _499
REMARK  201  A    between atoms: _501  and  _503
REMARK  202  A    between atoms: _503  and  _504
REMARK  203  A    between atoms: _503  and  _506
REMARK  204  A    between atoms: _506  and  _507
REMARK  205  A    between atoms: _513  and  _515
REMARK  206  A    between atoms: _515  and  _516
REMARK  207  A    between atoms: _515  and  _518
REMARK  208  A    between atoms: _518  and  _519
REMARK  209  A    between atoms: _521  and  _523
REMARK  210  A    between atoms: _523  and  _524
REMARK  211  A    between atoms: _523  and  _526
REMARK  212  A    between atoms: _526  and  _527
REMARK  213  A    between atoms: _537  and  _539
REMARK  214  A    between atoms: _539  and  _540
REMARK  215  A    between atoms: _542  and  _544
REMARK  216  A    between atoms: _544  and  _545
REMARK  217  A    between atoms: _544  and  _547
REMARK  218  A    between atoms: _547  and  _548
REMARK  219  A    between atoms: _548  and  _549
REMARK                            x       y       z     vdW  Elec       q    Type
REMARK                         _______ _______ _______ _____ _____    ______ ____
ROOT
ATOM      1  CA  ASP A   1     -33.893  29.229 -24.590  0.00  0.00    +0.144 C 
ENDROOT
BRANCH   1   2
ATOM      2  N   ASP A   1     -33.852  29.053 -26.036  0.00  0.00    -0.239 NA
ATOM      3  H   ASP A   1     -34.280  28.204 -26.456  0.00  0.00    +0.142 HD
ENDBRANCH   1   2
BRANCH   1   4
ATOM      4  C   ASP A   1     -32.519  29.477 -23.980  0.00  0.00    +0.225 C 
ATOM      5  O   ASP A   1     -32.373  30.309 -23.088  0.00  0.00    -0.287 OA
ENDBRANCH   1   4
BRANCH   1   6
ATOM      6  CB  ASP A   1     -34.534  28.000 -23.934  0.00  0.00    +0.139 C 
BRANCH   6   7
ATOM      7  CG  ASP A   1     -36.031  27.906 -24.202  0.00  0.00    +0.367 C 
ATOM      8  OD2 ASP A   1     -36.617  26.824 -23.959  0.00  0.00    -0.246 OA
ATOM      9  OD1 ASP A   1     -36.621  28.916 -24.646  0.00  0.00    -0.246 OA
ENDBRANCH   6   7
ENDBRANCH   1   6
TORSDOF 4
REMARK  Name = ../refined-set-2016/3jrx/3jrx_pocket.pdb
REMARK  219 active torsions:
REMARK  status: ('A' for Active; 'I' for Inactive)
REMARK    1  A    between atoms: _1  and  _3
REMARK    2  A    between atoms: _3  and  _4
REMARK    3  A    between atoms: _6  and  _8
REMARK    4  A    between atoms: _8  and  _9
REMARK    5  A    between atoms: _8  and  _11
REMARK    6  A    between atoms: _11  and  _12
REMARK    7  A    between atoms: _15  and  _17
REMARK    8  A    between atoms: _17  and  _18
REMARK    9  A    between atoms: _21  and  _23
REMARK   10  A    between atoms: _23  and  _24
REMARK   11  A    between atoms: _27  and  _29
REMARK   12  A    between atoms: _29  and  _30
REMARK   13  A    between atoms: _29  and  _32
REMARK   14  A    between atoms: _35  and  _37
REMARK   15  A    between atoms: _37  and  _38
REMARK   16  A    between atoms: _37  and  _40
REMARK   17  A    between atoms: _40  and  _41
REMARK   18  A    between atoms: _41  and  _42
REMARK   19  A    between atoms: _42  and  _43
REMARK   20  A    between atoms: _43  and  _44
REMARK   21  A    between atoms: _48  and  _50
REMARK   22  A    between atoms: _50  and  _51
REMARK   23  A    between atoms: _50  and  _53
REMARK   24  A    between atoms: _55  and  _57
REMARK   25  A    between atoms: _57  and  _58
REMARK   26  A    between atoms: _57  and  _60
REMARK   27  A    between atoms: _60  and  _61
REMARK   28  A    between atoms: _61  and  _62
REMARK   29  A    between atoms: _64  and  _66
REMARK   30  A    between atoms: _66  and  _67
REMARK   31  A    between atoms: _66  and  _69
REMARK   32  A    between atoms: _69  and  _70
REMARK   33  A    between atoms: _70  and  _71
REMARK   34  A    between atoms: _71  and  _72
REMARK   35  A    between atoms: _81  and  _83
REMARK   36  A    between atoms: _83  and  _84
REMARK   37  A    between atoms: _83  and  _86
REMARK   38  A    between atoms: _86  and  _87
REMARK   39  A    between atoms: _89  and  _91
REMARK   40  A    between atoms: _91  and  _92
REMARK   41  A    between atoms: _91  and  _94
REMARK   42  A    between atoms: _94  and  _95
REMARK   43  A    between atoms: _98  and  _100
REMARK   44  A    between atoms: _100  and  _101
REMARK   45  A    between atoms: _100  and  _103
REMARK   46  A    between atoms: _103  and  _104
REMARK   47  A    between atoms: _104  and  _105
REMARK   48  A    between atoms: _105  and  _106
REMARK   49  A    between atoms: _115  and  _117
REMARK   50  A    between atoms: _117  and  _118
REMARK   51  A    between atoms: _117  and  _120
REMARK   52  A    between atoms: _120  and  _121
REMARK   53  A    between atoms: _121  and  _122
REMARK   54  A    between atoms: _122  and  _123
REMARK   55  A    between atoms: _132  and  _134
REMARK   56  A    between atoms: _134  and  _135
REMARK   57  A    between atoms: _134  and  _137
REMARK   58  A    between atoms: _137  and  _138
REMARK   59  A    between atoms: _148  and  _150
REMARK   60  A    between atoms: _150  and  _151
REMARK   61  A    between atoms: _150  and  _153
REMARK   62  A    between atoms: _153  and  _154
REMARK   63  A    between atoms: _154  and  _155
REMARK   64  A    between atoms: _158  and  _160
REMARK   65  A    between atoms: _160  and  _161
REMARK   66  A    between atoms: _160  and  _163
REMARK   67  A    between atoms: _163  and  _164
REMARK   68  A    between atoms: _164  and  _165
REMARK   69  A    between atoms: _168  and  _170
REMARK   70  A    between atoms: _170  and  _171
REMARK   71  A    between atoms: _170  and  _173
REMARK   72  A    between atoms: _173  and  _174
REMARK   73  A    between atoms: _174  and  _175
REMARK   74  A    between atoms: _177  and  _179
REMARK   75  A    between atoms: _179  and  _180
REMARK   76  A    between atoms: _179  and  _182
REMARK   77  A    between atoms: _185  and  _187
REMARK   78  A    between atoms: _187  and  _188
REMARK   79  A    between atoms: _187  and  _190
REMARK   80  A    between atoms: _190  and  _191
REMARK   81  A    between atoms: _191  and  _192
REMARK   82  A    between atoms: _195  and  _197
REMARK   83  A    between atoms: _197  and  _198
REMARK   84  A    between atoms: _197  and  _200
REMARK   85  A    between atoms: _200  and  _201
REMARK   86  A    between atoms: _207  and  _208
REMARK   87  A    between atoms: _213  and  _215
REMARK   88  A    between atoms: _215  and  _216
REMARK   89  A    between atoms: _215  and  _218
REMARK   90  A    between atoms: _220  and  _222
REMARK   91  A    between atoms: _222  and  _223
REMARK   92  A    between atoms: _222  and  _225
REMARK   93  A    between atoms: _225  and  _226
REMARK   94  A    between atoms: _229  and  _231
REMARK   95  A    between atoms: _231  and  _232
REMARK   96  A    between atoms: _231  and  _234
REMARK   97  A    between atoms: _234  and  _235
REMARK   98  A    between atoms: _235  and  _236
REMARK   99  A    between atoms: _239  and  _241
REMARK  100  A    between atoms: _241  and  _242
REMARK  101  A    between atoms: _241  and  _244
REMARK  102  A    between atoms: _244  and  _245
REMARK  103  A    between atoms: _245  and  _246
REMARK  104  A    between atoms: _248  and  _250
REMARK  105  A    between atoms: _250  and  _251
REMARK  106  A    between atoms: _250  and  _253
REMARK  107  A    between atoms: _253  and  _254
REMARK  108  A    between atoms: _257  and  _259
REMARK  109  A    between atoms: _259  and  _260
REMARK  110  A    between atoms: _263  and  _265
REMARK  111  A    between atoms: _265  and  _266
REMARK  112  A    between atoms: _265  and  _268
REMARK  113  A    between atoms: _268  and  _269
REMARK  114  A    between atoms: _272  and  _274
REMARK  115  A    between atoms: _274  and  _275
REMARK  116  A    between atoms: _274  and  _277
REMARK  117  A    between atoms: _280  and  _282
REMARK  118  A    between atoms: _282  and  _283
REMARK  119  A    between atoms: _282  and  _285
REMARK  120  A    between atoms: _285  and  _286
REMARK  121  A    between atoms: _291  and  _293
REMARK  122  A    between atoms: _293  and  _294
REMARK  123  A    between atoms: _293  and  _296
REMARK  124  A    between atoms: _296  and  _297
REMARK  125  A    between atoms: _301  and  _302
REMARK  126  A    between atoms: _307  and  _309
REMARK  127  A    between atoms: _309  and  _310
REMARK  128  A    between atoms: _313  and  _315
REMARK  129  A    between atoms: _315  and  _316
REMARK  130  A    between atoms: _319  and  _321
REMARK  131  A    between atoms: _321  and  _322
REMARK  132  A    between atoms: _321  and  _324
REMARK  133  A    between atoms: _324  and  _325
REMARK  134  A    between atoms: _328  and  _330
REMARK  135  A    between atoms: _330  and  _331
REMARK  136  A    between atoms: _330  and  _333
REMARK  137  A    between atoms: _333  and  _334
REMARK  138  A    between atoms: _334  and  _335
REMARK  139  A    between atoms: _335  and  _336
REMARK  140  A    between atoms: _345  and  _347
REMARK  141  A    between atoms: _347  and  _348
REMARK  142  A    between atoms: _347  and  _350
REMARK  143  A    between atoms: _350  and  _351
REMARK  144  A    between atoms: _356  and  _358
REMARK  145  A    between atoms: _358  and  _359
REMARK  146  A    between atoms: _358  and  _361
REMARK  147  A    between atoms: _364  and  _366
REMARK  148  A    between atoms: _366  and  _367
REMARK  149  A    between atoms: _366  and  _369
REMARK  150  A    between atoms: _369  and  _370
REMARK  151  A    between atoms: _373  and  _375
REMARK  152  A    between atoms: _375  and  _376
REMARK  153  A    between atoms: _379  and  _381
REMARK  154  A    between atoms: _381  and  _382
REMARK  155  A    between atoms: _381  and  _384
REMARK  156  A    between atoms: _387  and  _389
REMARK  157  A    between atoms: _389  and  _390
REMARK  158  A    between atoms: _389  and  _392
REMARK  159  A    between atoms: _392  and  _393
REMARK  160  A    between atoms: _393  and  _394
REMARK  161  A    between atoms: _397  and  _399
REMARK  162  A    between atoms: _399  and  _400
REMARK  163  A    between atoms: _399  and  _402
REMARK  164  A    between atoms: _402  and  _403
REMARK  165  A    between atoms: _408  and  _410
REMARK  166  A    between atoms: _410  and  _411
REMARK  167  A    between atoms: _410  and  _413
REMARK  168  A    between atoms: _413  and  _414
REMARK  169  A    between atoms: _416  and  _418
REMARK  170  A    between atoms: _418  and  _419
REMARK  171  A    between atoms: _418  and  _421
REMARK  172  A    between atoms: _421  and  _422
REMARK  173  A    between atoms: _422  and  _423
REMARK  174  A    between atoms: _423  and  _424
REMARK  175  A    between atoms: _424  and  _425
REMARK  176  A    between atoms: _429  and  _431
REMARK  177  A    between atoms: _431  and  _432
REMARK  178  A    between atoms: _431  and  _434
REMARK  179  A    between atoms: _434  and  _435
REMARK  180  A    between atoms: _440  and  _442
REMARK  181  A    between atoms: _442  and  _443
REMARK  182  A    between atoms: _442  and  _445
REMARK  183  A    between atoms: _448  and  _450
REMARK  184  A    between atoms: _450  and  _451
REMARK  185  A    between atoms: _450  and  _453
REMARK  186  A    between atoms: _453  and  _454
REMARK  187  A    between atoms: _464  and  _466
REMARK  188  A    between atoms: _466  and  _467
REMARK  189  A    between atoms: _469  and  _471
REMARK  190  A    between atoms: _471  and  _472
REMARK  191  A    between atoms: _471  and  _474
REMARK  192  A    between atoms: _474  and  _475
REMARK  193  A    between atoms: _480  and  _481
REMARK  194  A    between atoms: _483  and  _485
REMARK  195  A    between atoms: _485  and  _486
REMARK  196  A    between atoms: _485  and  _488
REMARK  197  A    between atoms: _488  and  _489
REMARK  198  A    between atoms: _494  and  _496
REMARK  199  A    between atoms: _496  and  _497
REMARK  200  A    between atoms: _496  and  _499
REMARK  201  A    between atoms: _501  and  _503
REMARK  202  A    between atoms: _503  and  _504
REMARK  203  A    between atoms: _503  and  _506
REMARK  204  A    between atoms: _506  and  _507
REMARK  205  A    between atoms: _513  and  _515
REMARK  206  A    between atoms: _515  and  _516
REMARK  207  A    between atoms: _515  and  _518
REMARK  208  A    between atoms: _518  and  _519
REMARK  209  A    between atoms: _521  and  _523
REMARK  210  A    between atoms: _523  and  _524
REMARK  211  A    between atoms: _523  and  _526
REMARK  212  A    between atoms: _526  and  _527
REMARK  213  A    between atoms: _537  and  _539
REMARK  214  A    between atoms: _539  and  _540
REMARK  215  A    between atoms: _542  and  _544
REMARK  216  A    between atoms: _544  and  _545
REMARK  217  A    between atoms: _544  and  _547
REMARK  218  A    between atoms: _547  and  _548
REMARK  219  A    between atoms: _548  and  _549
REMARK                            x       y       z     vdW  Elec       q    Type
REMARK                         _______ _______ _______ _____ _____    ______ ____
ROOT
ATOM      1  NE  ARG A   1     -38.932  33.534 -15.307  0.00  0.00    -0.265 N 
ATOM      2  HE  ARG A   1     -38.580  32.827 -14.630  0.00  0.00    +0.259 HD
ATOM      3  CZ  ARG A   1     -39.526  33.087 -16.414  0.00  0.00    +0.342 C 
ATOM      4  NH2 ARG A   1     -39.651  31.778 -16.615  0.00  0.00    -0.292 N 
ATOM      5 HH21 ARG A   1     -39.286  31.106 -15.910  0.00  0.00    +0.255 HD
ATOM      6 HH22 ARG A   1     -40.114  31.426 -17.477  0.00  0.00    +0.255 HD
ATOM      7  NH1 ARG A   1     -39.997  33.941 -17.321  0.00  0.00    -0.292 N 
ATOM      8 HH11 ARG A   1     -39.903  34.965 -17.169  0.00  0.00    +0.255 HD
ATOM      9 HH12 ARG A   1     -40.459  33.583 -18.181  0.00  0.00    +0.255 HD
ENDROOT
BRANCH   1  10
ATOM     10  CD  ARG A   1     -38.738  34.948 -14.973  0.00  0.00    +0.174 C 
BRANCH  10  11
ATOM     11  CG  ARG A   1     -37.982  35.115 -13.651  0.00  0.00    +0.045 C 
BRANCH  11  12
ATOM     12  CB  ARG A   1     -36.656  34.367 -13.692  0.00  0.00    +0.029 C 
BRANCH  12  13
ATOM     13  CA  ARG A   1     -35.931  34.264 -12.349  0.00  0.00    +0.133 C 
BRANCH  13  14
ATOM     14  N   ARG A   1     -34.733  33.444 -12.510  0.00  0.00    -0.239 NA
ATOM     15  H   ARG A   1     -34.764  32.631 -13.157  0.00  0.00    +0.142 HD
ENDBRANCH  13  14
BRANCH  13  16
ATOM     16  C   ARG A   1     -36.898  33.741 -11.272  0.00  0.00    +0.224 C 
ATOM     17  O   ARG A   1     -37.608  32.755 -11.474  0.00  0.00    -0.287 OA
ENDBRANCH  13  16
ENDBRANCH  12  13
ENDBRANCH  11  12
ENDBRANCH  10  11
ENDBRANCH   1  10
TORSDOF 6
REMARK  Name = ../refined-set-2016/3jrx/3jrx_pocket.pdb
REMARK  219 active torsions:
REMARK  status: ('A' for Active; 'I' for Inactive)
REMARK    1  A    between atoms: _1  and  _3
REMARK    2  A    between atoms: _3  and  _4
REMARK    3  A    between atoms: _6  and  _8
REMARK    4  A    between atoms: _8  and  _9
REMARK    5  A    between atoms: _8  and  _11
REMARK    6  A    between atoms: _11  and  _12
REMARK    7  A    between atoms: _15  and  _17
REMARK    8  A    between atoms: _17  and  _18
REMARK    9  A    between atoms: _21  and  _23
REMARK   10  A    between atoms: _23  and  _24
REMARK   11  A    between atoms: _27  and  _29
REMARK   12  A    between atoms: _29  and  _30
REMARK   13  A    between atoms: _29  and  _32
REMARK   14  A    between atoms: _35  and  _37
REMARK   15  A    between atoms: _37  and  _38
REMARK   16  A    between atoms: _37  and  _40
REMARK   17  A    between atoms: _40  and  _41
REMARK   18  A    between atoms: _41  and  _42
REMARK   19  A    between atoms: _42  and  _43
REMARK   20  A    between atoms: _43  and  _44
REMARK   21  A    between atoms: _48  and  _50
REMARK   22  A    between atoms: _50  and  _51
REMARK   23  A    between atoms: _50  and  _53
REMARK   24  A    between atoms: _55  and  _57
REMARK   25  A    between atoms: _57  and  _58
REMARK   26  A    between atoms: _57  and  _60
REMARK   27  A    between atoms: _60  and  _61
REMARK   28  A    between atoms: _61  and  _62
REMARK   29  A    between atoms: _64  and  _66
REMARK   30  A    between atoms: _66  and  _67
REMARK   31  A    between atoms: _66  and  _69
REMARK   32  A    between atoms: _69  and  _70
REMARK   33  A    between atoms: _70  and  _71
REMARK   34  A    between atoms: _71  and  _72
REMARK   35  A    between atoms: _81  and  _83
REMARK   36  A    between atoms: _83  and  _84
REMARK   37  A    between atoms: _83  and  _86
REMARK   38  A    between atoms: _86  and  _87
REMARK   39  A    between atoms: _89  and  _91
REMARK   40  A    between atoms: _91  and  _92
REMARK   41  A    between atoms: _91  and  _94
REMARK   42  A    between atoms: _94  and  _95
REMARK   43  A    between atoms: _98  and  _100
REMARK   44  A    between atoms: _100  and  _101
REMARK   45  A    between atoms: _100  and  _103
REMARK   46  A    between atoms: _103  and  _104
REMARK   47  A    between atoms: _104  and  _105
REMARK   48  A    between atoms: _105  and  _106
REMARK   49  A    between atoms: _115  and  _117
REMARK   50  A    between atoms: _117  and  _118
REMARK   51  A    between atoms: _117  and  _120
REMARK   52  A    between atoms: _120  and  _121
REMARK   53  A    between atoms: _121  and  _122
REMARK   54  A    between atoms: _122  and  _123
REMARK   55  A    between atoms: _132  and  _134
REMARK   56  A    between atoms: _134  and  _135
REMARK   57  A    between atoms: _134  and  _137
REMARK   58  A    between atoms: _137  and  _138
REMARK   59  A    between atoms: _148  and  _150
REMARK   60  A    between atoms: _150  and  _151
REMARK   61  A    between atoms: _150  and  _153
REMARK   62  A    between atoms: _153  and  _154
REMARK   63  A    between atoms: _154  and  _155
REMARK   64  A    between atoms: _158  and  _160
REMARK   65  A    between atoms: _160  and  _161
REMARK   66  A    between atoms: _160  and  _163
REMARK   67  A    between atoms: _163  and  _164
REMARK   68  A    between atoms: _164  and  _165
REMARK   69  A    between atoms: _168  and  _170
REMARK   70  A    between atoms: _170  and  _171
REMARK   71  A    between atoms: _170  and  _173
REMARK   72  A    between atoms: _173  and  _174
REMARK   73  A    between atoms: _174  and  _175
REMARK   74  A    between atoms: _177  and  _179
REMARK   75  A    between atoms: _179  and  _180
REMARK   76  A    between atoms: _179  and  _182
REMARK   77  A    between atoms: _185  and  _187
REMARK   78  A    between atoms: _187  and  _188
REMARK   79  A    between atoms: _187  and  _190
REMARK   80  A    between atoms: _190  and  _191
REMARK   81  A    between atoms: _191  and  _192
REMARK   82  A    between atoms: _195  and  _197
REMARK   83  A    between atoms: _197  and  _198
REMARK   84  A    between atoms: _197  and  _200
REMARK   85  A    between atoms: _200  and  _201
REMARK   86  A    between atoms: _207  and  _208
REMARK   87  A    between atoms: _213  and  _215
REMARK   88  A    between atoms: _215  and  _216
REMARK   89  A    between atoms: _215  and  _218
REMARK   90  A    between atoms: _220  and  _222
REMARK   91  A    between atoms: _222  and  _223
REMARK   92  A    between atoms: _222  and  _225
REMARK   93  A    between atoms: _225  and  _226
REMARK   94  A    between atoms: _229  and  _231
REMARK   95  A    between atoms: _231  and  _232
REMARK   96  A    between atoms: _231  and  _234
REMARK   97  A    between atoms: _234  and  _235
REMARK   98  A    between atoms: _235  and  _236
REMARK   99  A    between atoms: _239  and  _241
REMARK  100  A    between atoms: _241  and  _242
REMARK  101  A    between atoms: _241  and  _244
REMARK  102  A    between atoms: _244  and  _245
REMARK  103  A    between atoms: _245  and  _246
REMARK  104  A    between atoms: _248  and  _250
REMARK  105  A    between atoms: _250  and  _251
REMARK  106  A    between atoms: _250  and  _253
REMARK  107  A    between atoms: _253  and  _254
REMARK  108  A    between atoms: _257  and  _259
REMARK  109  A    between atoms: _259  and  _260
REMARK  110  A    between atoms: _263  and  _265
REMARK  111  A    between atoms: _265  and  _266
REMARK  112  A    between atoms: _265  and  _268
REMARK  113  A    between atoms: _268  and  _269
REMARK  114  A    between atoms: _272  and  _274
REMARK  115  A    between atoms: _274  and  _275
REMARK  116  A    between atoms: _274  and  _277
REMARK  117  A    between atoms: _280  and  _282
REMARK  118  A    between atoms: _282  and  _283
REMARK  119  A    between atoms: _282  and  _285
REMARK  120  A    between atoms: _285  and  _286
REMARK  121  A    between atoms: _291  and  _293
REMARK  122  A    between atoms: _293  and  _294
REMARK  123  A    between atoms: _293  and  _296
REMARK  124  A    between atoms: _296  and  _297
REMARK  125  A    between atoms: _301  and  _302
REMARK  126  A    between atoms: _307  and  _309
REMARK  127  A    between atoms: _309  and  _310
REMARK  128  A    between atoms: _313  and  _315
REMARK  129  A    between atoms: _315  and  _316
REMARK  130  A    between atoms: _319  and  _321
REMARK  131  A    between atoms: _321  and  _322
REMARK  132  A    between atoms: _321  and  _324
REMARK  133  A    between atoms: _324  and  _325
REMARK  134  A    between atoms: _328  and  _330
REMARK  135  A    between atoms: _330  and  _331
REMARK  136  A    between atoms: _330  and  _333
REMARK  137  A    between atoms: _333  and  _334
REMARK  138  A    between atoms: _334  and  _335
REMARK  139  A    between atoms: _335  and  _336
REMARK  140  A    between atoms: _345  and  _347
REMARK  141  A    between atoms: _347  and  _348
REMARK  142  A    between atoms: _347  and  _350
REMARK  143  A    between atoms: _350  and  _351
REMARK  144  A    between atoms: _356  and  _358
REMARK  145  A    between atoms: _358  and  _359
REMARK  146  A    between atoms: _358  and  _361
REMARK  147  A    between atoms: _364  and  _366
REMARK  148  A    between atoms: _366  and  _367
REMARK  149  A    between atoms: _366  and  _369
REMARK  150  A    between atoms: _369  and  _370
REMARK  151  A    between atoms: _373  and  _375
REMARK  152  A    between atoms: _375  and  _376
REMARK  153  A    between atoms: _379  and  _381
REMARK  154  A    between atoms: _381  and  _382
REMARK  155  A    between atoms: _381  and  _384
REMARK  156  A    between atoms: _387  and  _389
REMARK  157  A    between atoms: _389  and  _390
REMARK  158  A    between atoms: _389  and  _392
REMARK  159  A    between atoms: _392  and  _393
REMARK  160  A    between atoms: _393  and  _394
REMARK  161  A    between atoms: _397  and  _399
REMARK  162  A    between atoms: _399  and  _400
REMARK  163  A    between atoms: _399  and  _402
REMARK  164  A    between atoms: _402  and  _403
REMARK  165  A    between atoms: _408  and  _410
REMARK  166  A    between atoms: _410  and  _411
REMARK  167  A    between atoms: _410  and  _413
REMARK  168  A    between atoms: _413  and  _414
REMARK  169  A    between atoms: _416  and  _418
REMARK  170  A    between atoms: _418  and  _419
REMARK  171  A    between atoms: _418  and  _421
REMARK  172  A    between atoms: _421  and  _422
REMARK  173  A    between atoms: _422  and  _423
REMARK  174  A    between atoms: _423  and  _424
REMARK  175  A    between atoms: _424  and  _425
REMARK  176  A    between atoms: _429  and  _431
REMARK  177  A    between atoms: _431  and  _432
REMARK  178  A    between atoms: _431  and  _434
REMARK  179  A    between atoms: _434  and  _435
REMARK  180  A    between atoms: _440  and  _442
REMARK  181  A    between atoms: _442  and  _443
REMARK  182  A    between atoms: _442  and  _445
REMARK  183  A    between atoms: _448  and  _450
REMARK  184  A    between atoms: _450  and  _451
REMARK  185  A    between atoms: _450  and  _453
REMARK  186  A    between atoms: _453  and  _454
REMARK  187  A    between atoms: _464  and  _466
REMARK  188  A    between atoms: _466  and  _467
REMARK  189  A    between atoms: _469  and  _471
REMARK  190  A    between atoms: _471  and  _472
REMARK  191  A    between atoms: _471  and  _474
REMARK  192  A    between atoms: _474  and  _475
REMARK  193  A    between atoms: _480  and  _481
REMARK  194  A    between atoms: _483  and  _485
REMARK  195  A    between atoms: _485  and  _486
REMARK  196  A    between atoms: _485  and  _488
REMARK  197  A    between atoms: _488  and  _489
REMARK  198  A    between atoms: _494  and  _496
REMARK  199  A    between atoms: _496  and  _497
REMARK  200  A    between atoms: _496  and  _499
REMARK  201  A    between atoms: _501  and  _503
REMARK  202  A    between atoms: _503  and  _504
REMARK  203  A    between atoms: _503  and  _506
REMARK  204  A    between atoms: _506  and  _507
REMARK  205  A    between atoms: _513  and  _515
REMARK  206  A    between atoms: _515  and  _516
REMARK  207  A    between atoms: _515  and  _518
REMARK  208  A    between atoms: _518  and  _519
REMARK  209  A    between atoms: _521  and  _523
REMARK  210  A    between atoms: _523  and  _524
REMARK  211  A    between atoms: _523  and  _526
REMARK  212  A    between atoms: _526  and  _527
REMARK  213  A    between atoms: _537  and  _539
REMARK  214  A    between atoms: _539  and  _540
REMARK  215  A    between atoms: _542  and  _544
REMARK  216  A    between atoms: _544  and  _545
REMARK  217  A    between atoms: _544  and  _547
REMARK  218  A    between atoms: _547  and  _548
REMARK  219  A    between atoms: _548  and  _549
REMARK                            x       y       z     vdW  Elec       q    Type
REMARK                         _______ _______ _______ _____ _____    ______ ____
ROOT
ATOM      1  CA  VAL A   2     -39.686  27.746  -6.687  0.00  0.00    +0.148 C 
ENDROOT
BRANCH   1   3
ATOM      2  C   HIS A   1     -39.100  30.094  -6.781  0.00  0.00    +0.239 C 
ATOM      3  N   VAL A   2     -38.737  28.834  -6.588  0.00  0.00    -0.297 N 
ATOM      4  H   VAL A   2     -37.745  28.622  -6.360  0.00  0.00    +0.150 HD
ATOM      5  O   HIS A   1     -40.265  30.433  -7.033  0.00  0.00    -0.274 OA
BRANCH   2   6
ATOM      6  CA  HIS A   1     -37.986  31.121  -6.653  0.00  0.00    +0.151 C 
BRANCH   6   7
ATOM      7  N   HIS A   1     -38.279  32.252  -7.512  0.00  0.00    -0.238 NA
ATOM      8  H   HIS A   1     -39.256  32.603  -7.571  0.00  0.00    +0.142 HD
ENDBRANCH   6   7
BRANCH   6   9
ATOM      9  CB  HIS A   1     -37.875  31.585  -5.192  0.00  0.00    +0.074 C 
BRANCH   9  10
ATOM     10  CG  HIS A   1     -37.150  30.621  -4.305  0.00  0.00    +0.082 A 
ATOM     11  CD2 HIS A   1     -37.573  29.502  -3.666  0.00  0.00    +0.115 A 
ATOM     12  NE2 HIS A   1     -36.486  28.979  -3.005  0.00  0.00    -0.221 NA
ATOM     13  CE1 HIS A   1     -35.435  29.747  -3.229  0.00  0.00    +0.199 A 
ATOM     14  ND1 HIS A   1     -35.807  30.745  -4.012  0.00  0.00    -0.227 NA
ENDBRANCH   9  10
ENDBRANCH   6   9
ENDBRANCH   2   6
ENDBRANCH   1   3
BRANCH   1  15
ATOM     15  C   VAL A   2     -39.627  26.808  -5.490  0.00  0.00    +0.241 C 
ATOM     16  O   VAL A   2     -38.556  26.515  -4.973  0.00  0.00    -0.273 OA
ATOM     17  N   ILE A   3     -40.796  26.354  -5.046  0.00  0.00    -0.297 N 
ATOM     18  H   ILE A   3     -41.677  26.703  -5.475  0.00  0.00    +0.150 HD
BRANCH  17  19
ATOM     19  CA  ILE A   3     -40.862  25.380  -3.973  0.00  0.00    +0.149 C 
BRANCH  19  20
ATOM     20  C   ILE A   3     -41.707  24.242  -4.541  0.00  0.00    +0.241 C 
ATOM     21  N   ALA A   4     -41.240  23.012  -4.367  0.00  0.00    -0.298 N 
ATOM     22  H   ALA A   4     -40.331  22.883  -3.879  0.00  0.00    +0.150 HD
ATOM     23  O   ILE A   3     -42.740  24.479  -5.169  0.00  0.00    -0.273 OA
BRANCH  21  24
ATOM     24  CA  ALA A   4     -41.961  21.836  -4.839  0.00  0.00    +0.137 C 
ATOM     25  CB  ALA A   4     -41.179  21.120  -5.923  0.00  0.00    +0.030 C 
BRANCH  24  26
ATOM     26  C   ALA A   4     -42.129  20.926  -3.639  0.00  0.00    +0.227 C 
ATOM     27  O   ALA A   4     -41.236  20.829  -2.788  0.00  0.00    -0.286 OA
ENDBRANCH  24  26
ENDBRANCH  21  24
ENDBRANCH  19  20
BRANCH  19  28
ATOM     28  CB  ILE A   3     -41.543  25.921  -2.700  0.00  0.00    +0.027 C 
ATOM     29  CG2 ILE A   3     -41.616  24.801  -1.637  0.00  0.00    +0.002 C 
BRANCH  28  30
ATOM     30  CG1 ILE A   3     -40.766  27.128  -2.146  0.00  0.00    +0.002 C 
ATOM     31  CD1 ILE A   3     -39.352  26.806  -1.616  0.00  0.00    +0.000 C 
ENDBRANCH  28  30
ENDBRANCH  19  28
ENDBRANCH  17  19
ENDBRANCH   1  15
BRANCH   1  32
ATOM     32  CB  VAL A   2     -39.426  26.894  -7.974  0.00  0.00    +0.027 C 
ATOM     33  CG2 VAL A   2     -40.208  25.565  -7.897  0.00  0.00    +0.002 C 
ATOM     34  CG1 VAL A   2     -39.803  27.700  -9.239  0.00  0.00    +0.002 C 
ENDBRANCH   1  32
TORSDOF 13
REMARK  Name = ../refined-set-2016/3jrx/3jrx_pocket.pdb
REMARK  219 active torsions:
REMARK  status: ('A' for Active; 'I' for Inactive)
REMARK    1  A    between atoms: _1  and  _3
REMARK    2  A    between atoms: _3  and  _4
REMARK    3  A    between atoms: _6  and  _8
REMARK    4  A    between atoms: _8  and  _9
REMARK    5  A    between atoms: _8  and  _11
REMARK    6  A    between atoms: _11  and  _12
REMARK    7  A    between atoms: _15  and  _17
REMARK    8  A    between atoms: _17  and  _18
REMARK    9  A    between atoms: _21  and  _23
REMARK   10  A    between atoms: _23  and  _24
REMARK   11  A    between atoms: _27  and  _29
REMARK   12  A    between atoms: _29  and  _30
REMARK   13  A    between atoms: _29  and  _32
REMARK   14  A    between atoms: _35  and  _37
REMARK   15  A    between atoms: _37  and  _38
REMARK   16  A    between atoms: _37  and  _40
REMARK   17  A    between atoms: _40  and  _41
REMARK   18  A    between atoms: _41  and  _42
REMARK   19  A    between atoms: _42  and  _43
REMARK   20  A    between atoms: _43  and  _44
REMARK   21  A    between atoms: _48  and  _50
REMARK   22  A    between atoms: _50  and  _51
REMARK   23  A    between atoms: _50  and  _53
REMARK   24  A    between atoms: _55  and  _57
REMARK   25  A    between atoms: _57  and  _58
REMARK   26  A    between atoms: _57  and  _60
REMARK   27  A    between atoms: _60  and  _61
REMARK   28  A    between atoms: _61  and  _62
REMARK   29  A    between atoms: _64  and  _66
REMARK   30  A    between atoms: _66  and  _67
REMARK   31  A    between atoms: _66  and  _69
REMARK   32  A    between atoms: _69  and  _70
REMARK   33  A    between atoms: _70  and  _71
REMARK   34  A    between atoms: _71  and  _72
REMARK   35  A    between atoms: _81  and  _83
REMARK   36  A    between atoms: _83  and  _84
REMARK   37  A    between atoms: _83  and  _86
REMARK   38  A    between atoms: _86  and  _87
REMARK   39  A    between atoms: _89  and  _91
REMARK   40  A    between atoms: _91  and  _92
REMARK   41  A    between atoms: _91  and  _94
REMARK   42  A    between atoms: _94  and  _95
REMARK   43  A    between atoms: _98  and  _100
REMARK   44  A    between atoms: _100  and  _101
REMARK   45  A    between atoms: _100  and  _103
REMARK   46  A    between atoms: _103  and  _104
REMARK   47  A    between atoms: _104  and  _105
REMARK   48  A    between atoms: _105  and  _106
REMARK   49  A    between atoms: _115  and  _117
REMARK   50  A    between atoms: _117  and  _118
REMARK   51  A    between atoms: _117  and  _120
REMARK   52  A    between atoms: _120  and  _121
REMARK   53  A    between atoms: _121  and  _122
REMARK   54  A    between atoms: _122  and  _123
REMARK   55  A    between atoms: _132  and  _134
REMARK   56  A    between atoms: _134  and  _135
REMARK   57  A    between atoms: _134  and  _137
REMARK   58  A    between atoms: _137  and  _138
REMARK   59  A    between atoms: _148  and  _150
REMARK   60  A    between atoms: _150  and  _151
REMARK   61  A    between atoms: _150  and  _153
REMARK   62  A    between atoms: _153  and  _154
REMARK   63  A    between atoms: _154  and  _155
REMARK   64  A    between atoms: _158  and  _160
REMARK   65  A    between atoms: _160  and  _161
REMARK   66  A    between atoms: _160  and  _163
REMARK   67  A    between atoms: _163  and  _164
REMARK   68  A    between atoms: _164  and  _165
REMARK   69  A    between atoms: _168  and  _170
REMARK   70  A    between atoms: _170  and  _171
REMARK   71  A    between atoms: _170  and  _173
REMARK   72  A    between atoms: _173  and  _174
REMARK   73  A    between atoms: _174  and  _175
REMARK   74  A    between atoms: _177  and  _179
REMARK   75  A    between atoms: _179  and  _180
REMARK   76  A    between atoms: _179  and  _182
REMARK   77  A    between atoms: _185  and  _187
REMARK   78  A    between atoms: _187  and  _188
REMARK   79  A    between atoms: _187  and  _190
REMARK   80  A    between atoms: _190  and  _191
REMARK   81  A    between atoms: _191  and  _192
REMARK   82  A    between atoms: _195  and  _197
REMARK   83  A    between atoms: _197  and  _198
REMARK   84  A    between atoms: _197  and  _200
REMARK   85  A    between atoms: _200  and  _201
REMARK   86  A    between atoms: _207  and  _208
REMARK   87  A    between atoms: _213  and  _215
REMARK   88  A    between atoms: _215  and  _216
REMARK   89  A    between atoms: _215  and  _218
REMARK   90  A    between atoms: _220  and  _222
REMARK   91  A    between atoms: _222  and  _223
REMARK   92  A    between atoms: _222  and  _225
REMARK   93  A    between atoms: _225  and  _226
REMARK   94  A    between atoms: _229  and  _231
REMARK   95  A    between atoms: _231  and  _232
REMARK   96  A    between atoms: _231  and  _234
REMARK   97  A    between atoms: _234  and  _235
REMARK   98  A    between atoms: _235  and  _236
REMARK   99  A    between atoms: _239  and  _241
REMARK  100  A    between atoms: _241  and  _242
REMARK  101  A    between atoms: _241  and  _244
REMARK  102  A    between atoms: _244  and  _245
REMARK  103  A    between atoms: _245  and  _246
REMARK  104  A    between atoms: _248  and  _250
REMARK  105  A    between atoms: _250  and  _251
REMARK  106  A    between atoms: _250  and  _253
REMARK  107  A    between atoms: _253  and  _254
REMARK  108  A    between atoms: _257  and  _259
REMARK  109  A    between atoms: _259  and  _260
REMARK  110  A    between atoms: _263  and  _265
REMARK  111  A    between atoms: _265  and  _266
REMARK  112  A    between atoms: _265  and  _268
REMARK  113  A    between atoms: _268  and  _269
REMARK  114  A    between atoms: _272  and  _274
REMARK  115  A    between atoms: _274  and  _275
REMARK  116  A    between atoms: _274  and  _277
REMARK  117  A    between atoms: _280  and  _282
REMARK  118  A    between atoms: _282  and  _283
REMARK  119  A    between atoms: _282  and  _285
REMARK  120  A    between atoms: _285  and  _286
REMARK  121  A    between atoms: _291  and  _293
REMARK  122  A    between atoms: _293  and  _294
REMARK  123  A    between atoms: _293  and  _296
REMARK  124  A    between atoms: _296  and  _297
REMARK  125  A    between atoms: _301  and  _302
REMARK  126  A    between atoms: _307  and  _309
REMARK  127  A    between atoms: _309  and  _310
REMARK  128  A    between atoms: _313  and  _315
REMARK  129  A    between atoms: _315  and  _316
REMARK  130  A    between atoms: _319  and  _321
REMARK  131  A    between atoms: _321  and  _322
REMARK  132  A    between atoms: _321  and  _324
REMARK  133  A    between atoms: _324  and  _325
REMARK  134  A    between atoms: _328  and  _330
REMARK  135  A    between atoms: _330  and  _331
REMARK  136  A    between atoms: _330  and  _333
REMARK  137  A    between atoms: _333  and  _334
REMARK  138  A    between atoms: _334  and  _335
REMARK  139  A    between atoms: _335  and  _336
REMARK  140  A    between atoms: _345  and  _347
REMARK  141  A    between atoms: _347  and  _348
REMARK  142  A    between atoms: _347  and  _350
REMARK  143  A    between atoms: _350  and  _351
REMARK  144  A    between atoms: _356  and  _358
REMARK  145  A    between atoms: _358  and  _359
REMARK  146  A    between atoms: _358  and  _361
REMARK  147  A    between atoms: _364  and  _366
REMARK  148  A    between atoms: _366  and  _367
REMARK  149  A    between atoms: _366  and  _369
REMARK  150  A    between atoms: _369  and  _370
REMARK  151  A    between atoms: _373  and  _375
REMARK  152  A    between atoms: _375  and  _376
REMARK  153  A    between atoms: _379  and  _381
REMARK  154  A    between atoms: _381  and  _382
REMARK  155  A    between atoms: _381  and  _384
REMARK  156  A    between atoms: _387  and  _389
REMARK  157  A    between atoms: _389  and  _390
REMARK  158  A    between atoms: _389  and  _392
REMARK  159  A    between atoms: _392  and  _393
REMARK  160  A    between atoms: _393  and  _394
REMARK  161  A    between atoms: _397  and  _399
REMARK  162  A    between atoms: _399  and  _400
REMARK  163  A    between atoms: _399  and  _402
REMARK  164  A    between atoms: _402  and  _403
REMARK  165  A    between atoms: _408  and  _410
REMARK  166  A    between atoms: _410  and  _411
REMARK  167  A    between atoms: _410  and  _413
REMARK  168  A    between atoms: _413  and  _414
REMARK  169  A    between atoms: _416  and  _418
REMARK  170  A    between atoms: _418  and  _419
REMARK  171  A    between atoms: _418  and  _421
REMARK  172  A    between atoms: _421  and  _422
REMARK  173  A    between atoms: _422  and  _423
REMARK  174  A    between atoms: _423  and  _424
REMARK  175  A    between atoms: _424  and  _425
REMARK  176  A    between atoms: _429  and  _431
REMARK  177  A    between atoms: _431  and  _432
REMARK  178  A    between atoms: _431  and  _434
REMARK  179  A    between atoms: _434  and  _435
REMARK  180  A    between atoms: _440  and  _442
REMARK  181  A    between atoms: _442  and  _443
REMARK  182  A    between atoms: _442  and  _445
REMARK  183  A    between atoms: _448  and  _450
REMARK  184  A    between atoms: _450  and  _451
REMARK  185  A    between atoms: _450  and  _453
REMARK  186  A    between atoms: _453  and  _454
REMARK  187  A    between atoms: _464  and  _466
REMARK  188  A    between atoms: _466  and  _467
REMARK  189  A    between atoms: _469  and  _471
REMARK  190  A    between atoms: _471  and  _472
REMARK  191  A    between atoms: _471  and  _474
REMARK  192  A    between atoms: _474  and  _475
REMARK  193  A    between atoms: _480  and  _481
REMARK  194  A    between atoms: _483  and  _485
REMARK  195  A    between atoms: _485  and  _486
REMARK  196  A    between atoms: _485  and  _488
REMARK  197  A    between atoms: _488  and  _489
REMARK  198  A    between atoms: _494  and  _496
REMARK  199  A    between atoms: _496  and  _497
REMARK  200  A    between atoms: _496  and  _499
REMARK  201  A    between atoms: _501  and  _503
REMARK  202  A    between atoms: _503  and  _504
REMARK  203  A    between atoms: _503  and  _506
REMARK  204  A    between atoms: _506  and  _507
REMARK  205  A    between atoms: _513  and  _515
REMARK  206  A    between atoms: _515  and  _516
REMARK  207  A    between atoms: _515  and  _518
REMARK  208  A    between atoms: _518  and  _519
REMARK  209  A    between atoms: _521  and  _523
REMARK  210  A    between atoms: _523  and  _524
REMARK  211  A    between atoms: _523  and  _526
REMARK  212  A    between atoms: _526  and  _527
REMARK  213  A    between atoms: _537  and  _539
REMARK  214  A    between atoms: _539  and  _540
REMARK  215  A    between atoms: _542  and  _544
REMARK  216  A    between atoms: _544  and  _545
REMARK  217  A    between atoms: _544  and  _547
REMARK  218  A    between atoms: _547  and  _548
REMARK  219  A    between atoms: _548  and  _549
REMARK                            x       y       z     vdW  Elec       q    Type
REMARK                         _______ _______ _______ _____ _____    ______ ____
ROOT
ATOM      1  CA  VAL A   1     -53.045  11.481 -13.680  0.00  0.00    +0.133 C 
ENDROOT
BRANCH   1   2
ATOM      2  CB  VAL A   1     -51.889  12.189 -14.438  0.00  0.00    +0.023 C 
ATOM      3  CG2 VAL A   1     -51.519  13.485 -13.738  0.00  0.00    +0.002 C 
ATOM      4  CG1 VAL A   1     -52.308  12.494 -15.848  0.00  0.00    +0.002 C 
ENDBRANCH   1   2
BRANCH   1   5
ATOM      5  N   VAL A   1     -53.529  10.332 -14.428  0.00  0.00    -0.239 NA
ATOM      6  H   VAL A   1     -53.973  10.488 -15.356  0.00  0.00    +0.142 HD
ENDBRANCH   1   5
BRANCH   1   7
ATOM      7  C   VAL A   1     -54.187  12.475 -13.463  0.00  0.00    +0.224 C 
ATOM      8  O   VAL A   1     -55.080  12.601 -14.304  0.00  0.00    -0.287 OA
ENDBRANCH   1   7
TORSDOF 3
REMARK  Name = ../refined-set-2016/3jrx/3jrx_pocket.pdb
REMARK  219 active torsions:
REMARK  status: ('A' for Active; 'I' for Inactive)
REMARK    1  A    between atoms: _1  and  _3
REMARK    2  A    between atoms: _3  and  _4
REMARK    3  A    between atoms: _6  and  _8
REMARK    4  A    between atoms: _8  and  _9
REMARK    5  A    between atoms: _8  and  _11
REMARK    6  A    between atoms: _11  and  _12
REMARK    7  A    between atoms: _15  and  _17
REMARK    8  A    between atoms: _17  and  _18
REMARK    9  A    between atoms: _21  and  _23
REMARK   10  A    between atoms: _23  and  _24
REMARK   11  A    between atoms: _27  and  _29
REMARK   12  A    between atoms: _29  and  _30
REMARK   13  A    between atoms: _29  and  _32
REMARK   14  A    between atoms: _35  and  _37
REMARK   15  A    between atoms: _37  and  _38
REMARK   16  A    between atoms: _37  and  _40
REMARK   17  A    between atoms: _40  and  _41
REMARK   18  A    between atoms: _41  and  _42
REMARK   19  A    between atoms: _42  and  _43
REMARK   20  A    between atoms: _43  and  _44
REMARK   21  A    between atoms: _48  and  _50
REMARK   22  A    between atoms: _50  and  _51
REMARK   23  A    between atoms: _50  and  _53
REMARK   24  A    between atoms: _55  and  _57
REMARK   25  A    between atoms: _57  and  _58
REMARK   26  A    between atoms: _57  and  _60
REMARK   27  A    between atoms: _60  and  _61
REMARK   28  A    between atoms: _61  and  _62
REMARK   29  A    between atoms: _64  and  _66
REMARK   30  A    between atoms: _66  and  _67
REMARK   31  A    between atoms: _66  and  _69
REMARK   32  A    between atoms: _69  and  _70
REMARK   33  A    between atoms: _70  and  _71
REMARK   34  A    between atoms: _71  and  _72
REMARK   35  A    between atoms: _81  and  _83
REMARK   36  A    between atoms: _83  and  _84
REMARK   37  A    between atoms: _83  and  _86
REMARK   38  A    between atoms: _86  and  _87
REMARK   39  A    between atoms: _89  and  _91
REMARK   40  A    between atoms: _91  and  _92
REMARK   41  A    between atoms: _91  and  _94
REMARK   42  A    between atoms: _94  and  _95
REMARK   43  A    between atoms: _98  and  _100
REMARK   44  A    between atoms: _100  and  _101
REMARK   45  A    between atoms: _100  and  _103
REMARK   46  A    between atoms: _103  and  _104
REMARK   47  A    between atoms: _104  and  _105
REMARK   48  A    between atoms: _105  and  _106
REMARK   49  A    between atoms: _115  and  _117
REMARK   50  A    between atoms: _117  and  _118
REMARK   51  A    between atoms: _117  and  _120
REMARK   52  A    between atoms: _120  and  _121
REMARK   53  A    between atoms: _121  and  _122
REMARK   54  A    between atoms: _122  and  _123
REMARK   55  A    between atoms: _132  and  _134
REMARK   56  A    between atoms: _134  and  _135
REMARK   57  A    between atoms: _134  and  _137
REMARK   58  A    between atoms: _137  and  _138
REMARK   59  A    between atoms: _148  and  _150
REMARK   60  A    between atoms: _150  and  _151
REMARK   61  A    between atoms: _150  and  _153
REMARK   62  A    between atoms: _153  and  _154
REMARK   63  A    between atoms: _154  and  _155
REMARK   64  A    between atoms: _158  and  _160
REMARK   65  A    between atoms: _160  and  _161
REMARK   66  A    between atoms: _160  and  _163
REMARK   67  A    between atoms: _163  and  _164
REMARK   68  A    between atoms: _164  and  _165
REMARK   69  A    between atoms: _168  and  _170
REMARK   70  A    between atoms: _170  and  _171
REMARK   71  A    between atoms: _170  and  _173
REMARK   72  A    between atoms: _173  and  _174
REMARK   73  A    between atoms: _174  and  _175
REMARK   74  A    between atoms: _177  and  _179
REMARK   75  A    between atoms: _179  and  _180
REMARK   76  A    between atoms: _179  and  _182
REMARK   77  A    between atoms: _185  and  _187
REMARK   78  A    between atoms: _187  and  _188
REMARK   79  A    between atoms: _187  and  _190
REMARK   80  A    between atoms: _190  and  _191
REMARK   81  A    between atoms: _191  and  _192
REMARK   82  A    between atoms: _195  and  _197
REMARK   83  A    between atoms: _197  and  _198
REMARK   84  A    between atoms: _197  and  _200
REMARK   85  A    between atoms: _200  and  _201
REMARK   86  A    between atoms: _207  and  _208
REMARK   87  A    between atoms: _213  and  _215
REMARK   88  A    between atoms: _215  and  _216
REMARK   89  A    between atoms: _215  and  _218
REMARK   90  A    between atoms: _220  and  _222
REMARK   91  A    between atoms: _222  and  _223
REMARK   92  A    between atoms: _222  and  _225
REMARK   93  A    between atoms: _225  and  _226
REMARK   94  A    between atoms: _229  and  _231
REMARK   95  A    between atoms: _231  and  _232
REMARK   96  A    between atoms: _231  and  _234
REMARK   97  A    between atoms: _234  and  _235
REMARK   98  A    between atoms: _235  and  _236
REMARK   99  A    between atoms: _239  and  _241
REMARK  100  A    between atoms: _241  and  _242
REMARK  101  A    between atoms: _241  and  _244
REMARK  102  A    between atoms: _244  and  _245
REMARK  103  A    between atoms: _245  and  _246
REMARK  104  A    between atoms: _248  and  _250
REMARK  105  A    between atoms: _250  and  _251
REMARK  106  A    between atoms: _250  and  _253
REMARK  107  A    between atoms: _253  and  _254
REMARK  108  A    between atoms: _257  and  _259
REMARK  109  A    between atoms: _259  and  _260
REMARK  110  A    between atoms: _263  and  _265
REMARK  111  A    between atoms: _265  and  _266
REMARK  112  A    between atoms: _265  and  _268
REMARK  113  A    between atoms: _268  and  _269
REMARK  114  A    between atoms: _272  and  _274
REMARK  115  A    between atoms: _274  and  _275
REMARK  116  A    between atoms: _274  and  _277
REMARK  117  A    between atoms: _280  and  _282
REMARK  118  A    between atoms: _282  and  _283
REMARK  119  A    between atoms: _282  and  _285
REMARK  120  A    between atoms: _285  and  _286
REMARK  121  A    between atoms: _291  and  _293
REMARK  122  A    between atoms: _293  and  _294
REMARK  123  A    between atoms: _293  and  _296
REMARK  124  A    between atoms: _296  and  _297
REMARK  125  A    between atoms: _301  and  _302
REMARK  126  A    between atoms: _307  and  _309
REMARK  127  A    between atoms: _309  and  _310
REMARK  128  A    between atoms: _313  and  _315
REMARK  129  A    between atoms: _315  and  _316
REMARK  130  A    between atoms: _319  and  _321
REMARK  131  A    between atoms: _321  and  _322
REMARK  132  A    between atoms: _321  and  _324
REMARK  133  A    between atoms: _324  and  _325
REMARK  134  A    between atoms: _328  and  _330
REMARK  135  A    between atoms: _330  and  _331
REMARK  136  A    between atoms: _330  and  _333
REMARK  137  A    between atoms: _333  and  _334
REMARK  138  A    between atoms: _334  and  _335
REMARK  139  A    between atoms: _335  and  _336
REMARK  140  A    between atoms: _345  and  _347
REMARK  141  A    between atoms: _347  and  _348
REMARK  142  A    between atoms: _347  and  _350
REMARK  143  A    between atoms: _350  and  _351
REMARK  144  A    between atoms: _356  and  _358
REMARK  145  A    between atoms: _358  and  _359
REMARK  146  A    between atoms: _358  and  _361
REMARK  147  A    between atoms: _364  and  _366
REMARK  148  A    between atoms: _366  and  _367
REMARK  149  A    between atoms: _366  and  _369
REMARK  150  A    between atoms: _369  and  _370
REMARK  151  A    between atoms: _373  and  _375
REMARK  152  A    between atoms: _375  and  _376
REMARK  153  A    between atoms: _379  and  _381
REMARK  154  A    between atoms: _381  and  _382
REMARK  155  A    between atoms: _381  and  _384
REMARK  156  A    between atoms: _387  and  _389
REMARK  157  A    between atoms: _389  and  _390
REMARK  158  A    between atoms: _389  and  _392
REMARK  159  A    between atoms: _392  and  _393
REMARK  160  A    between atoms: _393  and  _394
REMARK  161  A    between atoms: _397  and  _399
REMARK  162  A    between atoms: _399  and  _400
REMARK  163  A    between atoms: _399  and  _402
REMARK  164  A    between atoms: _402  and  _403
REMARK  165  A    between atoms: _408  and  _410
REMARK  166  A    between atoms: _410  and  _411
REMARK  167  A    between atoms: _410  and  _413
REMARK  168  A    between atoms: _413  and  _414
REMARK  169  A    between atoms: _416  and  _418
REMARK  170  A    between atoms: _418  and  _419
REMARK  171  A    between atoms: _418  and  _421
REMARK  172  A    between atoms: _421  and  _422
REMARK  173  A    between atoms: _422  and  _423
REMARK  174  A    between atoms: _423  and  _424
REMARK  175  A    between atoms: _424  and  _425
REMARK  176  A    between atoms: _429  and  _431
REMARK  177  A    between atoms: _431  and  _432
REMARK  178  A    between atoms: _431  and  _434
REMARK  179  A    between atoms: _434  and  _435
REMARK  180  A    between atoms: _440  and  _442
REMARK  181  A    between atoms: _442  and  _443
REMARK  182  A    between atoms: _442  and  _445
REMARK  183  A    between atoms: _448  and  _450
REMARK  184  A    between atoms: _450  and  _451
REMARK  185  A    between atoms: _450  and  _453
REMARK  186  A    between atoms: _453  and  _454
REMARK  187  A    between atoms: _464  and  _466
REMARK  188  A    between atoms: _466  and  _467
REMARK  189  A    between atoms: _469  and  _471
REMARK  190  A    between atoms: _471  and  _472
REMARK  191  A    between atoms: _471  and  _474
REMARK  192  A    between atoms: _474  and  _475
REMARK  193  A    between atoms: _480  and  _481
REMARK  194  A    between atoms: _483  and  _485
REMARK  195  A    between atoms: _485  and  _486
REMARK  196  A    between atoms: _485  and  _488
REMARK  197  A    between atoms: _488  and  _489
REMARK  198  A    between atoms: _494  and  _496
REMARK  199  A    between atoms: _496  and  _497
REMARK  200  A    between atoms: _496  and  _499
REMARK  201  A    between atoms: _501  and  _503
REMARK  202  A    between atoms: _503  and  _504
REMARK  203  A    between atoms: _503  and  _506
REMARK  204  A    between atoms: _506  and  _507
REMARK  205  A    between atoms: _513  and  _515
REMARK  206  A    between atoms: _515  and  _516
REMARK  207  A    between atoms: _515  and  _518
REMARK  208  A    between atoms: _518  and  _519
REMARK  209  A    between atoms: _521  and  _523
REMARK  210  A    between atoms: _523  and  _524
REMARK  211  A    between atoms: _523  and  _526
REMARK  212  A    between atoms: _526  and  _527
REMARK  213  A    between atoms: _537  and  _539
REMARK  214  A    between atoms: _539  and  _540
REMARK  215  A    between atoms: _542  and  _544
REMARK  216  A    between atoms: _544  and  _545
REMARK  217  A    between atoms: _544  and  _547
REMARK  218  A    between atoms: _547  and  _548
REMARK  219  A    between atoms: _548  and  _549
REMARK                            x       y       z     vdW  Elec       q    Type
REMARK                         _______ _______ _______ _____ _____    ______ ____
ROOT
ATOM      1  CA  GLU A   1     -54.205  17.816 -12.618  0.00  0.00    +0.134 C 
ENDROOT
BRANCH   1   2
ATOM      2  N   GLU A   1     -54.781  16.474 -12.699  0.00  0.00    -0.239 NA
ATOM      3  H   GLU A   1     -55.447  16.257 -13.468  0.00  0.00    +0.142 HD
ENDBRANCH   1   2
BRANCH   1   4
ATOM      4  C   GLU A   1     -54.860  18.561 -11.451  0.00  0.00    +0.224 C 
ATOM      5  O   GLU A   1     -56.083  18.596 -11.334  0.00  0.00    -0.287 OA
ENDBRANCH   1   4
BRANCH   1   6
ATOM      6  CB  GLU A   1     -54.471  18.593 -13.912  0.00  0.00    +0.037 C 
BRANCH   6   7
ATOM      7  CG  GLU A   1     -53.235  19.087 -14.670  0.00  0.00    +0.116 C 
BRANCH   7   8
ATOM      8  CD  GLU A   1     -53.558  20.219 -15.662  0.00  0.00    +0.365 C 
ATOM      9  OE2 GLU A   1     -53.946  21.330 -15.224  0.00  0.00    -0.246 OA
ATOM     10  OE1 GLU A   1     -53.430  19.996 -16.884  0.00  0.00    -0.246 OA
ENDBRANCH   7   8
ENDBRANCH   6   7
ENDBRANCH   1   6
TORSDOF 5
REMARK  Name = ../refined-set-2016/3jrx/3jrx_pocket.pdb
REMARK  219 active torsions:
REMARK  status: ('A' for Active; 'I' for Inactive)
REMARK    1  A    between atoms: _1  and  _3
REMARK    2  A    between atoms: _3  and  _4
REMARK    3  A    between atoms: _6  and  _8
REMARK    4  A    between atoms: _8  and  _9
REMARK    5  A    between atoms: _8  and  _11
REMARK    6  A    between atoms: _11  and  _12
REMARK    7  A    between atoms: _15  and  _17
REMARK    8  A    between atoms: _17  and  _18
REMARK    9  A    between atoms: _21  and  _23
REMARK   10  A    between atoms: _23  and  _24
REMARK   11  A    between atoms: _27  and  _29
REMARK   12  A    between atoms: _29  and  _30
REMARK   13  A    between atoms: _29  and  _32
REMARK   14  A    between atoms: _35  and  _37
REMARK   15  A    between atoms: _37  and  _38
REMARK   16  A    between atoms: _37  and  _40
REMARK   17  A    between atoms: _40  and  _41
REMARK   18  A    between atoms: _41  and  _42
REMARK   19  A    between atoms: _42  and  _43
REMARK   20  A    between atoms: _43  and  _44
REMARK   21  A    between atoms: _48  and  _50
REMARK   22  A    between atoms: _50  and  _51
REMARK   23  A    between atoms: _50  and  _53
REMARK   24  A    between atoms: _55  and  _57
REMARK   25  A    between atoms: _57  and  _58
REMARK   26  A    between atoms: _57  and  _60
REMARK   27  A    between atoms: _60  and  _61
REMARK   28  A    between atoms: _61  and  _62
REMARK   29  A    between atoms: _64  and  _66
REMARK   30  A    between atoms: _66  and  _67
REMARK   31  A    between atoms: _66  and  _69
REMARK   32  A    between atoms: _69  and  _70
REMARK   33  A    between atoms: _70  and  _71
REMARK   34  A    between atoms: _71  and  _72
REMARK   35  A    between atoms: _81  and  _83
REMARK   36  A    between atoms: _83  and  _84
REMARK   37  A    between atoms: _83  and  _86
REMARK   38  A    between atoms: _86  and  _87
REMARK   39  A    between atoms: _89  and  _91
REMARK   40  A    between atoms: _91  and  _92
REMARK   41  A    between atoms: _91  and  _94
REMARK   42  A    between atoms: _94  and  _95
REMARK   43  A    between atoms: _98  and  _100
REMARK   44  A    between atoms: _100  and  _101
REMARK   45  A    between atoms: _100  and  _103
REMARK   46  A    between atoms: _103  and  _104
REMARK   47  A    between atoms: _104  and  _105
REMARK   48  A    between atoms: _105  and  _106
REMARK   49  A    between atoms: _115  and  _117
REMARK   50  A    between atoms: _117  and  _118
REMARK   51  A    between atoms: _117  and  _120
REMARK   52  A    between atoms: _120  and  _121
REMARK   53  A    between atoms: _121  and  _122
REMARK   54  A    between atoms: _122  and  _123
REMARK   55  A    between atoms: _132  and  _134
REMARK   56  A    between atoms: _134  and  _135
REMARK   57  A    between atoms: _134  and  _137
REMARK   58  A    between atoms: _137  and  _138
REMARK   59  A    between atoms: _148  and  _150
REMARK   60  A    between atoms: _150  and  _151
REMARK   61  A    between atoms: _150  and  _153
REMARK   62  A    between atoms: _153  and  _154
REMARK   63  A    between atoms: _154  and  _155
REMARK   64  A    between atoms: _158  and  _160
REMARK   65  A    between atoms: _160  and  _161
REMARK   66  A    between atoms: _160  and  _163
REMARK   67  A    between atoms: _163  and  _164
REMARK   68  A    between atoms: _164  and  _165
REMARK   69  A    between atoms: _168  and  _170
REMARK   70  A    between atoms: _170  and  _171
REMARK   71  A    between atoms: _170  and  _173
REMARK   72  A    between atoms: _173  and  _174
REMARK   73  A    between atoms: _174  and  _175
REMARK   74  A    between atoms: _177  and  _179
REMARK   75  A    between atoms: _179  and  _180
REMARK   76  A    between atoms: _179  and  _182
REMARK   77  A    between atoms: _185  and  _187
REMARK   78  A    between atoms: _187  and  _188
REMARK   79  A    between atoms: _187  and  _190
REMARK   80  A    between atoms: _190  and  _191
REMARK   81  A    between atoms: _191  and  _192
REMARK   82  A    between atoms: _195  and  _197
REMARK   83  A    between atoms: _197  and  _198
REMARK   84  A    between atoms: _197  and  _200
REMARK   85  A    between atoms: _200  and  _201
REMARK   86  A    between atoms: _207  and  _208
REMARK   87  A    between atoms: _213  and  _215
REMARK   88  A    between atoms: _215  and  _216
REMARK   89  A    between atoms: _215  and  _218
REMARK   90  A    between atoms: _220  and  _222
REMARK   91  A    between atoms: _222  and  _223
REMARK   92  A    between atoms: _222  and  _225
REMARK   93  A    between atoms: _225  and  _226
REMARK   94  A    between atoms: _229  and  _231
REMARK   95  A    between atoms: _231  and  _232
REMARK   96  A    between atoms: _231  and  _234
REMARK   97  A    between atoms: _234  and  _235
REMARK   98  A    between atoms: _235  and  _236
REMARK   99  A    between atoms: _239  and  _241
REMARK  100  A    between atoms: _241  and  _242
REMARK  101  A    between atoms: _241  and  _244
REMARK  102  A    between atoms: _244  and  _245
REMARK  103  A    between atoms: _245  and  _246
REMARK  104  A    between atoms: _248  and  _250
REMARK  105  A    between atoms: _250  and  _251
REMARK  106  A    between atoms: _250  and  _253
REMARK  107  A    between atoms: _253  and  _254
REMARK  108  A    between atoms: _257  and  _259
REMARK  109  A    between atoms: _259  and  _260
REMARK  110  A    between atoms: _263  and  _265
REMARK  111  A    between atoms: _265  and  _266
REMARK  112  A    between atoms: _265  and  _268
REMARK  113  A    between atoms: _268  and  _269
REMARK  114  A    between atoms: _272  and  _274
REMARK  115  A    between atoms: _274  and  _275
REMARK  116  A    between atoms: _274  and  _277
REMARK  117  A    between atoms: _280  and  _282
REMARK  118  A    between atoms: _282  and  _283
REMARK  119  A    between atoms: _282  and  _285
REMARK  120  A    between atoms: _285  and  _286
REMARK  121  A    between atoms: _291  and  _293
REMARK  122  A    between atoms: _293  and  _294
REMARK  123  A    between atoms: _293  and  _296
REMARK  124  A    between atoms: _296  and  _297
REMARK  125  A    between atoms: _301  and  _302
REMARK  126  A    between atoms: _307  and  _309
REMARK  127  A    between atoms: _309  and  _310
REMARK  128  A    between atoms: _313  and  _315
REMARK  129  A    between atoms: _315  and  _316
REMARK  130  A    between atoms: _319  and  _321
REMARK  131  A    between atoms: _321  and  _322
REMARK  132  A    between atoms: _321  and  _324
REMARK  133  A    between atoms: _324  and  _325
REMARK  134  A    between atoms: _328  and  _330
REMARK  135  A    between atoms: _330  and  _331
REMARK  136  A    between atoms: _330  and  _333
REMARK  137  A    between atoms: _333  and  _334
REMARK  138  A    between atoms: _334  and  _335
REMARK  139  A    between atoms: _335  and  _336
REMARK  140  A    between atoms: _345  and  _347
REMARK  141  A    between atoms: _347  and  _348
REMARK  142  A    between atoms: _347  and  _350
REMARK  143  A    between atoms: _350  and  _351
REMARK  144  A    between atoms: _356  and  _358
REMARK  145  A    between atoms: _358  and  _359
REMARK  146  A    between atoms: _358  and  _361
REMARK  147  A    between atoms: _364  and  _366
REMARK  148  A    between atoms: _366  and  _367
REMARK  149  A    between atoms: _366  and  _369
REMARK  150  A    between atoms: _369  and  _370
REMARK  151  A    between atoms: _373  and  _375
REMARK  152  A    between atoms: _375  and  _376
REMARK  153  A    between atoms: _379  and  _381
REMARK  154  A    between atoms: _381  and  _382
REMARK  155  A    between atoms: _381  and  _384
REMARK  156  A    between atoms: _387  and  _389
REMARK  157  A    between atoms: _389  and  _390
REMARK  158  A    between atoms: _389  and  _392
REMARK  159  A    between atoms: _392  and  _393
REMARK  160  A    between atoms: _393  and  _394
REMARK  161  A    between atoms: _397  and  _399
REMARK  162  A    between atoms: _399  and  _400
REMARK  163  A    between atoms: _399  and  _402
REMARK  164  A    between atoms: _402  and  _403
REMARK  165  A    between atoms: _408  and  _410
REMARK  166  A    between atoms: _410  and  _411
REMARK  167  A    between atoms: _410  and  _413
REMARK  168  A    between atoms: _413  and  _414
REMARK  169  A    between atoms: _416  and  _418
REMARK  170  A    between atoms: _418  and  _419
REMARK  171  A    between atoms: _418  and  _421
REMARK  172  A    between atoms: _421  and  _422
REMARK  173  A    between atoms: _422  and  _423
REMARK  174  A    between atoms: _423  and  _424
REMARK  175  A    between atoms: _424  and  _425
REMARK  176  A    between atoms: _429  and  _431
REMARK  177  A    between atoms: _431  and  _432
REMARK  178  A    between atoms: _431  and  _434
REMARK  179  A    between atoms: _434  and  _435
REMARK  180  A    between atoms: _440  and  _442
REMARK  181  A    between atoms: _442  and  _443
REMARK  182  A    between atoms: _442  and  _445
REMARK  183  A    between atoms: _448  and  _450
REMARK  184  A    between atoms: _450  and  _451
REMARK  185  A    between atoms: _450  and  _453
REMARK  186  A    between atoms: _453  and  _454
REMARK  187  A    between atoms: _464  and  _466
REMARK  188  A    between atoms: _466  and  _467
REMARK  189  A    between atoms: _469  and  _471
REMARK  190  A    between atoms: _471  and  _472
REMARK  191  A    between atoms: _471  and  _474
REMARK  192  A    between atoms: _474  and  _475
REMARK  193  A    between atoms: _480  and  _481
REMARK  194  A    between atoms: _483  and  _485
REMARK  195  A    between atoms: _485  and  _486
REMARK  196  A    between atoms: _485  and  _488
REMARK  197  A    between atoms: _488  and  _489
REMARK  198  A    between atoms: _494  and  _496
REMARK  199  A    between atoms: _496  and  _497
REMARK  200  A    between atoms: _496  and  _499
REMARK  201  A    between atoms: _501  and  _503
REMARK  202  A    between atoms: _503  and  _504
REMARK  203  A    between atoms: _503  and  _506
REMARK  204  A    between atoms: _506  and  _507
REMARK  205  A    between atoms: _513  and  _515
REMARK  206  A    between atoms: _515  and  _516
REMARK  207  A    between atoms: _515  and  _518
REMARK  208  A    between atoms: _518  and  _519
REMARK  209  A    between atoms: _521  and  _523
REMARK  210  A    between atoms: _523  and  _524
REMARK  211  A    between atoms: _523  and  _526
REMARK  212  A    between atoms: _526  and  _527
REMARK  213  A    between atoms: _537  and  _539
REMARK  214  A    between atoms: _539  and  _540
REMARK  215  A    between atoms: _542  and  _544
REMARK  216  A    between atoms: _544  and  _545
REMARK  217  A    between atoms: _544  and  _547
REMARK  218  A    between atoms: _547  and  _548
REMARK  219  A    between atoms: _548  and  _549
REMARK                            x       y       z     vdW  Elec       q    Type
REMARK                         _______ _______ _______ _____ _____    ______ ____
ROOT
ATOM      1  CB  ASN A   1     -56.316  23.959 -11.093  0.00  0.00    +0.110 C 
ENDROOT
BRANCH   1   2
ATOM      2  CG  ASN A   1     -55.632  23.529 -12.392  0.00  0.00    +0.221 C 
ATOM      3  OD1 ASN A   1     -55.716  22.367 -12.804  0.00  0.00    -0.275 OA
ATOM      4  ND2 ASN A   1     -54.934  24.466 -13.030  0.00  0.00    -0.329 N 
ATOM      5 HD21 ASN A   1     -54.890  25.432 -12.648  0.00  0.00    +0.145 HD
ATOM      6 HD22 ASN A   1     -54.433  24.232 -13.911  0.00  0.00    +0.145 HD
ENDBRANCH   1   2
BRANCH   1   7
ATOM      7  CA  ASN A   1     -55.518  23.549  -9.855  0.00  0.00    +0.142 C 
BRANCH   7   8
ATOM      8  N   ASN A   1     -55.558  22.109  -9.664  0.00  0.00    -0.239 NA
ATOM      9  H   ASN A   1     -56.467  21.641  -9.474  0.00  0.00    +0.142 HD
ENDBRANCH   7   8
BRANCH   7  10
ATOM     10  C   ASN A   1     -56.078  24.174  -8.591  0.00  0.00    +0.225 C 
ATOM     11  O   ASN A   1     -56.967  23.616  -7.954  0.00  0.00    -0.287 OA
ENDBRANCH   7  10
ENDBRANCH   1   7
TORSDOF 4
REMARK  Name = ../refined-set-2016/3jrx/3jrx_pocket.pdb
REMARK  219 active torsions:
REMARK  status: ('A' for Active; 'I' for Inactive)
REMARK    1  A    between atoms: _1  and  _3
REMARK    2  A    between atoms: _3  and  _4
REMARK    3  A    between atoms: _6  and  _8
REMARK    4  A    between atoms: _8  and  _9
REMARK    5  A    between atoms: _8  and  _11
REMARK    6  A    between atoms: _11  and  _12
REMARK    7  A    between atoms: _15  and  _17
REMARK    8  A    between atoms: _17  and  _18
REMARK    9  A    between atoms: _21  and  _23
REMARK   10  A    between atoms: _23  and  _24
REMARK   11  A    between atoms: _27  and  _29
REMARK   12  A    between atoms: _29  and  _30
REMARK   13  A    between atoms: _29  and  _32
REMARK   14  A    between atoms: _35  and  _37
REMARK   15  A    between atoms: _37  and  _38
REMARK   16  A    between atoms: _37  and  _40
REMARK   17  A    between atoms: _40  and  _41
REMARK   18  A    between atoms: _41  and  _42
REMARK   19  A    between atoms: _42  and  _43
REMARK   20  A    between atoms: _43  and  _44
REMARK   21  A    between atoms: _48  and  _50
REMARK   22  A    between atoms: _50  and  _51
REMARK   23  A    between atoms: _50  and  _53
REMARK   24  A    between atoms: _55  and  _57
REMARK   25  A    between atoms: _57  and  _58
REMARK   26  A    between atoms: _57  and  _60
REMARK   27  A    between atoms: _60  and  _61
REMARK   28  A    between atoms: _61  and  _62
REMARK   29  A    between atoms: _64  and  _66
REMARK   30  A    between atoms: _66  and  _67
REMARK   31  A    between atoms: _66  and  _69
REMARK   32  A    between atoms: _69  and  _70
REMARK   33  A    between atoms: _70  and  _71
REMARK   34  A    between atoms: _71  and  _72
REMARK   35  A    between atoms: _81  and  _83
REMARK   36  A    between atoms: _83  and  _84
REMARK   37  A    between atoms: _83  and  _86
REMARK   38  A    between atoms: _86  and  _87
REMARK   39  A    between atoms: _89  and  _91
REMARK   40  A    between atoms: _91  and  _92
REMARK   41  A    between atoms: _91  and  _94
REMARK   42  A    between atoms: _94  and  _95
REMARK   43  A    between atoms: _98  and  _100
REMARK   44  A    between atoms: _100  and  _101
REMARK   45  A    between atoms: _100  and  _103
REMARK   46  A    between atoms: _103  and  _104
REMARK   47  A    between atoms: _104  and  _105
REMARK   48  A    between atoms: _105  and  _106
REMARK   49  A    between atoms: _115  and  _117
REMARK   50  A    between atoms: _117  and  _118
REMARK   51  A    between atoms: _117  and  _120
REMARK   52  A    between atoms: _120  and  _121
REMARK   53  A    between atoms: _121  and  _122
REMARK   54  A    between atoms: _122  and  _123
REMARK   55  A    between atoms: _132  and  _134
REMARK   56  A    between atoms: _134  and  _135
REMARK   57  A    between atoms: _134  and  _137
REMARK   58  A    between atoms: _137  and  _138
REMARK   59  A    between atoms: _148  and  _150
REMARK   60  A    between atoms: _150  and  _151
REMARK   61  A    between atoms: _150  and  _153
REMARK   62  A    between atoms: _153  and  _154
REMARK   63  A    between atoms: _154  and  _155
REMARK   64  A    between atoms: _158  and  _160
REMARK   65  A    between atoms: _160  and  _161
REMARK   66  A    between atoms: _160  and  _163
REMARK   67  A    between atoms: _163  and  _164
REMARK   68  A    between atoms: _164  and  _165
REMARK   69  A    between atoms: _168  and  _170
REMARK   70  A    between atoms: _170  and  _171
REMARK   71  A    between atoms: _170  and  _173
REMARK   72  A    between atoms: _173  and  _174
REMARK   73  A    between atoms: _174  and  _175
REMARK   74  A    between atoms: _177  and  _179
REMARK   75  A    between atoms: _179  and  _180
REMARK   76  A    between atoms: _179  and  _182
REMARK   77  A    between atoms: _185  and  _187
REMARK   78  A    between atoms: _187  and  _188
REMARK   79  A    between atoms: _187  and  _190
REMARK   80  A    between atoms: _190  and  _191
REMARK   81  A    between atoms: _191  and  _192
REMARK   82  A    between atoms: _195  and  _197
REMARK   83  A    between atoms: _197  and  _198
REMARK   84  A    between atoms: _197  and  _200
REMARK   85  A    between atoms: _200  and  _201
REMARK   86  A    between atoms: _207  and  _208
REMARK   87  A    between atoms: _213  and  _215
REMARK   88  A    between atoms: _215  and  _216
REMARK   89  A    between atoms: _215  and  _218
REMARK   90  A    between atoms: _220  and  _222
REMARK   91  A    between atoms: _222  and  _223
REMARK   92  A    between atoms: _222  and  _225
REMARK   93  A    between atoms: _225  and  _226
REMARK   94  A    between atoms: _229  and  _231
REMARK   95  A    between atoms: _231  and  _232
REMARK   96  A    between atoms: _231  and  _234
REMARK   97  A    between atoms: _234  and  _235
REMARK   98  A    between atoms: _235  and  _236
REMARK   99  A    between atoms: _239  and  _241
REMARK  100  A    between atoms: _241  and  _242
REMARK  101  A    between atoms: _241  and  _244
REMARK  102  A    between atoms: _244  and  _245
REMARK  103  A    between atoms: _245  and  _246
REMARK  104  A    between atoms: _248  and  _250
REMARK  105  A    between atoms: _250  and  _251
REMARK  106  A    between atoms: _250  and  _253
REMARK  107  A    between atoms: _253  and  _254
REMARK  108  A    between atoms: _257  and  _259
REMARK  109  A    between atoms: _259  and  _260
REMARK  110  A    between atoms: _263  and  _265
REMARK  111  A    between atoms: _265  and  _266
REMARK  112  A    between atoms: _265  and  _268
REMARK  113  A    between atoms: _268  and  _269
REMARK  114  A    between atoms: _272  and  _274
REMARK  115  A    between atoms: _274  and  _275
REMARK  116  A    between atoms: _274  and  _277
REMARK  117  A    between atoms: _280  and  _282
REMARK  118  A    between atoms: _282  and  _283
REMARK  119  A    between atoms: _282  and  _285
REMARK  120  A    between atoms: _285  and  _286
REMARK  121  A    between atoms: _291  and  _293
REMARK  122  A    between atoms: _293  and  _294
REMARK  123  A    between atoms: _293  and  _296
REMARK  124  A    between atoms: _296  and  _297
REMARK  125  A    between atoms: _301  and  _302
REMARK  126  A    between atoms: _307  and  _309
REMARK  127  A    between atoms: _309  and  _310
REMARK  128  A    between atoms: _313  and  _315
REMARK  129  A    between atoms: _315  and  _316
REMARK  130  A    between atoms: _319  and  _321
REMARK  131  A    between atoms: _321  and  _322
REMARK  132  A    between atoms: _321  and  _324
REMARK  133  A    between atoms: _324  and  _325
REMARK  134  A    between atoms: _328  and  _330
REMARK  135  A    between atoms: _330  and  _331
REMARK  136  A    between atoms: _330  and  _333
REMARK  137  A    between atoms: _333  and  _334
REMARK  138  A    between atoms: _334  and  _335
REMARK  139  A    between atoms: _335  and  _336
REMARK  140  A    between atoms: _345  and  _347
REMARK  141  A    between atoms: _347  and  _348
REMARK  142  A    between atoms: _347  and  _350
REMARK  143  A    between atoms: _350  and  _351
REMARK  144  A    between atoms: _356  and  _358
REMARK  145  A    between atoms: _358  and  _359
REMARK  146  A    between atoms: _358  and  _361
REMARK  147  A    between atoms: _364  and  _366
REMARK  148  A    between atoms: _366  and  _367
REMARK  149  A    between atoms: _366  and  _369
REMARK  150  A    between atoms: _369  and  _370
REMARK  151  A    between atoms: _373  and  _375
REMARK  152  A    between atoms: _375  and  _376
REMARK  153  A    between atoms: _379  and  _381
REMARK  154  A    between atoms: _381  and  _382
REMARK  155  A    between atoms: _381  and  _384
REMARK  156  A    between atoms: _387  and  _389
REMARK  157  A    between atoms: _389  and  _390
REMARK  158  A    between atoms: _389  and  _392
REMARK  159  A    between atoms: _392  and  _393
REMARK  160  A    between atoms: _393  and  _394
REMARK  161  A    between atoms: _397  and  _399
REMARK  162  A    between atoms: _399  and  _400
REMARK  163  A    between atoms: _399  and  _402
REMARK  164  A    between atoms: _402  and  _403
REMARK  165  A    between atoms: _408  and  _410
REMARK  166  A    between atoms: _410  and  _411
REMARK  167  A    between atoms: _410  and  _413
REMARK  168  A    between atoms: _413  and  _414
REMARK  169  A    between atoms: _416  and  _418
REMARK  170  A    between atoms: _418  and  _419
REMARK  171  A    between atoms: _418  and  _421
REMARK  172  A    between atoms: _421  and  _422
REMARK  173  A    between atoms: _422  and  _423
REMARK  174  A    between atoms: _423  and  _424
REMARK  175  A    between atoms: _424  and  _425
REMARK  176  A    between atoms: _429  and  _431
REMARK  177  A    between atoms: _431  and  _432
REMARK  178  A    between atoms: _431  and  _434
REMARK  179  A    between atoms: _434  and  _435
REMARK  180  A    between atoms: _440  and  _442
REMARK  181  A    between atoms: _442  and  _443
REMARK  182  A    between atoms: _442  and  _445
REMARK  183  A    between atoms: _448  and  _450
REMARK  184  A    between atoms: _450  and  _451
REMARK  185  A    between atoms: _450  and  _453
REMARK  186  A    between atoms: _453  and  _454
REMARK  187  A    between atoms: _464  and  _466
REMARK  188  A    between atoms: _466  and  _467
REMARK  189  A    between atoms: _469  and  _471
REMARK  190  A    between atoms: _471  and  _472
REMARK  191  A    between atoms: _471  and  _474
REMARK  192  A    between atoms: _474  and  _475
REMARK  193  A    between atoms: _480  and  _481
REMARK  194  A    between atoms: _483  and  _485
REMARK  195  A    between atoms: _485  and  _486
REMARK  196  A    between atoms: _485  and  _488
REMARK  197  A    between atoms: _488  and  _489
REMARK  198  A    between atoms: _494  and  _496
REMARK  199  A    between atoms: _496  and  _497
REMARK  200  A    between atoms: _496  and  _499
REMARK  201  A    between atoms: _501  and  _503
REMARK  202  A    between atoms: _503  and  _504
REMARK  203  A    between atoms: _503  and  _506
REMARK  204  A    between atoms: _506  and  _507
REMARK  205  A    between atoms: _513  and  _515
REMARK  206  A    between atoms: _515  and  _516
REMARK  207  A    between atoms: _515  and  _518
REMARK  208  A    between atoms: _518  and  _519
REMARK  209  A    between atoms: _521  and  _523
REMARK  210  A    between atoms: _523  and  _524
REMARK  211  A    between atoms: _523  and  _526
REMARK  212  A    between atoms: _526  and  _527
REMARK  213  A    between atoms: _537  and  _539
REMARK  214  A    between atoms: _539  and  _540
REMARK  215  A    between atoms: _542  and  _544
REMARK  216  A    between atoms: _544  and  _545
REMARK  217  A    between atoms: _544  and  _547
REMARK  218  A    between atoms: _547  and  _548
REMARK  219  A    between atoms: _548  and  _549
REMARK                            x       y       z     vdW  Elec       q    Type
REMARK                         _______ _______ _______ _____ _____    ______ ____
ROOT
ATOM      1  CA  VAL A   4     -49.259  26.833  -8.234  0.00  0.00    +0.149 C 
ENDROOT
BRANCH   1   2
ATOM      2  C   VAL A   4     -49.920  25.800  -9.131  0.00  0.00    +0.241 C 
ATOM      3  N   TRP A   5     -49.216  24.709  -9.377  0.00  0.00    -0.297 N 
ATOM      4  H   TRP A   5     -48.263  24.618  -8.971  0.00  0.00    +0.150 HD
ATOM      5  O   VAL A   4     -51.035  25.994  -9.602  0.00  0.00    -0.273 OA
BRANCH   3   6
ATOM      6  CA  TRP A   5     -49.740  23.637 -10.199  0.00  0.00    +0.153 C 
BRANCH   6   7
ATOM      7  C   TRP A   5     -49.442  22.316  -9.511  0.00  0.00    +0.241 C 
ATOM      8  O   TRP A   5     -48.446  22.184  -8.795  0.00  0.00    -0.273 OA
ATOM      9  N   GLY A   6     -50.309  21.334  -9.714  0.00  0.00    -0.295 N 
ATOM     10  H   GLY A   6     -51.144  21.485 -10.315  0.00  0.00    +0.150 HD
BRANCH   9  11
ATOM     11  CA  GLY A   6     -50.078  20.048  -9.088  0.00  0.00    +0.176 C 
BRANCH  11  12
ATOM     12  C   GLY A   6     -50.730  18.915  -9.834  0.00  0.00    +0.243 C 
ATOM     13  N   TYR A   7     -50.472  17.691  -9.378  0.00  0.00    -0.298 N 
ATOM     14  H   TYR A   7     -49.829  17.594  -8.566  0.00  0.00    +0.150 HD
ATOM     15  O   GLY A   6     -51.439  19.146 -10.808  0.00  0.00    -0.273 OA
BRANCH  13  16
ATOM     16  CA  TYR A   7     -51.044  16.477  -9.957  0.00  0.00    +0.141 C 
BRANCH  16  17
ATOM     17  C   TYR A   7     -50.832  15.368  -8.935  0.00  0.00    +0.227 C 
ATOM     18  O   TYR A   7     -50.074  15.523  -7.978  0.00  0.00    -0.286 OA
ENDBRANCH  16  17
BRANCH  16  19
ATOM     19  CB  TYR A   7     -50.339  16.058 -11.266  0.00  0.00    +0.054 C 
BRANCH  19  20
ATOM     20  CG  TYR A   7     -49.029  15.353 -11.017  0.00  0.00    -0.020 A 
ATOM     21  CD2 TYR A   7     -47.887  16.077 -10.701  0.00  0.00    -0.001 A 
ATOM     22  CE2 TYR A   7     -46.728  15.448 -10.273  0.00  0.00    +0.036 A 
ATOM     23  CZ  TYR A   7     -46.697  14.073 -10.157  0.00  0.00    +0.134 A 
ATOM     24  CE1 TYR A   7     -47.810  13.319 -10.485  0.00  0.00    +0.036 A 
ATOM     25  CD1 TYR A   7     -48.970  13.961 -10.918  0.00  0.00    -0.001 A 
BRANCH  23  26
ATOM     26  OH  TYR A   7     -45.570  13.475  -9.642  0.00  0.00    -0.506 OA
ATOM     27  HH  TYR A   7     -44.881  14.165  -9.469  0.00  0.00    +0.292 HD
ENDBRANCH  23  26
ENDBRANCH  19  20
ENDBRANCH  16  19
ENDBRANCH  13  16
ENDBRANCH  11  12
ENDBRANCH   9  11
ENDBRANCH   6   7
BRANCH   6  28
ATOM     28  CB  TRP A   5     -49.086  23.656 -11.571  0.00  0.00    +0.057 C 
BRANCH  28  29
ATOM     29  CG  TRP A   5     -49.582  22.572 -12.446  0.00  0.00    -0.002 A 
ATOM     30  CD2 TRP A   5     -48.994  21.275 -12.619  0.00  0.00    +0.013 A 
ATOM     31  CE3 TRP A   5     -47.847  20.652 -12.108  0.00  0.00    +0.001 A 
ATOM     32  CZ3 TRP A   5     -47.572  19.343 -12.495  0.00  0.00    +0.000 A 
ATOM     33  CH2 TRP A   5     -48.421  18.657 -13.380  0.00  0.00    +0.001 A 
ATOM     34  CZ2 TRP A   5     -49.543  19.245 -13.892  0.00  0.00    +0.017 A 
ATOM     35  CE2 TRP A   5     -49.823  20.554 -13.504  0.00  0.00    +0.056 A 
ATOM     36  NE1 TRP A   5     -50.863  21.377 -13.851  0.00  0.00    -0.352 N 
ATOM     37  HE1 TRP A   5     -51.642  21.128 -14.494  0.00  0.00    +0.166 HD
ATOM     38  CD1 TRP A   5     -50.710  22.587 -13.211  0.00  0.00    +0.068 A 
ENDBRANCH  28  29
ENDBRANCH   6  28
ENDBRANCH   3   6
ENDBRANCH   1   2
BRANCH   1  41
ATOM     39  C   ASN A   3     -48.529  29.058  -8.871  0.00  0.00    +0.241 C 
ATOM     40  O   ASN A   3     -47.367  28.828  -8.560  0.00  0.00    -0.273 OA
ATOM     41  N   VAL A   4     -49.507  28.168  -8.747  0.00  0.00    -0.297 N 
ATOM     42  H   VAL A   4     -50.473  28.434  -9.024  0.00  0.00    +0.150 HD
BRANCH  39  43
ATOM     43  CA  ASN A   3     -48.917  30.411  -9.418  0.00  0.00    +0.158 C 
BRANCH  43  45
ATOM     44  C   LYS A   2     -51.198  30.605 -10.264  0.00  0.00    +0.241 C 
ATOM     45  N   ASN A   3     -50.336  30.717  -9.255  0.00  0.00    -0.297 N 
ATOM     46  H   ASN A   3     -50.682  31.031  -8.326  0.00  0.00    +0.150 HD
ATOM     47  O   LYS A   2     -50.857  30.244 -11.390  0.00  0.00    -0.273 OA
BRANCH  44  48
ATOM     48  CA  LYS A   2     -52.664  30.960  -9.961  0.00  0.00    +0.149 C 
BRANCH  48  51
ATOM     49  C   SER A   1     -52.818  30.465  -7.584  0.00  0.00    +0.241 C 
ATOM     50  O   SER A   1     -52.800  29.248  -7.772  0.00  0.00    -0.274 OA
ATOM     51  N   LYS A   2     -52.768  31.356  -8.566  0.00  0.00    -0.297 N 
ATOM     52  H   LYS A   2     -52.804  32.368  -8.331  0.00  0.00    +0.150 HD
BRANCH  49  53
ATOM     53  CA  SER A   1     -52.889  31.044  -6.183  0.00  0.00    +0.174 C 
BRANCH  53  54
ATOM     54  N   SER A   1     -53.954  30.468  -5.378  0.00  0.00    -0.236 NA
ATOM     55  H   SER A   1     -53.875  29.474  -5.083  0.00  0.00    +0.142 HD
ENDBRANCH  53  54
BRANCH  53  56
ATOM     56  CB  SER A   1     -51.541  30.833  -5.488  0.00  0.00    +0.163 C 
BRANCH  56  57
ATOM     57  OG  SER A   1     -50.462  31.150  -6.349  0.00  0.00    -0.380 OA
ATOM     58  H   SER A   1     -49.607  31.004  -5.872  0.00  0.00    +0.211 HD
ENDBRANCH  56  57
ENDBRANCH  53  56
ENDBRANCH  49  53
ENDBRANCH  48  51
BRANCH  48  59
ATOM     59  CB  LYS A   2     -53.111  32.111 -10.868  0.00  0.00    +0.029 C 
BRANCH  59  60
ATOM     60  CG  LYS A   2     -52.125  33.291 -10.911  0.00  0.00    +0.000 C 
BRANCH  60  61
ATOM     61  CD  LYS A   2     -51.956  33.952  -9.533  0.00  0.00    -0.024 C 
BRANCH  61  62
ATOM     62  CE  LYS A   2     -50.948  35.104  -9.569  0.00  0.00    -0.086 C 
BRANCH  62  63
ATOM     63  NZ  LYS A   2     -51.387  36.221 -10.458  0.00  0.00    +0.380 N 
ATOM     64  HZ1 LYS A   2     -52.294  36.599 -10.116  0.00  0.00    -0.089 HD
ATOM     65  HZ2 LYS A   2     -50.670  36.974 -10.446  0.00  0.00    -0.089 HD
ATOM     66  HZ3 LYS A   2     -51.502  35.865 -11.428  0.00  0.00    -0.089 HD
ENDBRANCH  62  63
ENDBRANCH  61  62
ENDBRANCH  60  61
ENDBRANCH  59  60
ENDBRANCH  48  59
ENDBRANCH  44  48
ENDBRANCH  43  45
BRANCH  43  67
ATOM     67  CB  ASN A   3     -48.048  31.467  -8.736  0.00  0.00    +0.114 C 
BRANCH  67  68
ATOM     68  CG  ASN A   3     -48.087  32.795  -9.448  0.00  0.00    +0.222 C 
ATOM     69  ND2 ASN A   3     -48.033  33.873  -8.684  0.00  0.00    -0.329 N 
ATOM     70 HD21 ASN A   3     -47.984  33.775  -7.650  0.00  0.00    +0.145 HD
ATOM     71 HD22 ASN A   3     -48.039  34.818  -9.117  0.00  0.00    +0.145 HD
ATOM     72  OD1 ASN A   3     -48.146  32.851 -10.675  0.00  0.00    -0.275 OA
ENDBRANCH  67  68
ENDBRANCH  43  67
ENDBRANCH  39  43
ENDBRANCH   1  41
BRANCH   1  73
ATOM     73  CB  VAL A   4     -49.813  26.668  -6.810  0.00  0.00    +0.027 C 
ATOM     74  CG2 VAL A   4     -49.188  27.708  -5.884  0.00  0.00    +0.002 C 
ATOM     75  CG1 VAL A   4     -49.537  25.254  -6.314  0.00  0.00    +0.002 C 
ENDBRANCH   1  73
TORSDOF 29
REMARK  Name = ../refined-set-2016/3jrx/3jrx_pocket.pdb
REMARK  219 active torsions:
REMARK  status: ('A' for Active; 'I' for Inactive)
REMARK    1  A    between atoms: _1  and  _3
REMARK    2  A    between atoms: _3  and  _4
REMARK    3  A    between atoms: _6  and  _8
REMARK    4  A    between atoms: _8  and  _9
REMARK    5  A    between atoms: _8  and  _11
REMARK    6  A    between atoms: _11  and  _12
REMARK    7  A    between atoms: _15  and  _17
REMARK    8  A    between atoms: _17  and  _18
REMARK    9  A    between atoms: _21  and  _23
REMARK   10  A    between atoms: _23  and  _24
REMARK   11  A    between atoms: _27  and  _29
REMARK   12  A    between atoms: _29  and  _30
REMARK   13  A    between atoms: _29  and  _32
REMARK   14  A    between atoms: _35  and  _37
REMARK   15  A    between atoms: _37  and  _38
REMARK   16  A    between atoms: _37  and  _40
REMARK   17  A    between atoms: _40  and  _41
REMARK   18  A    between atoms: _41  and  _42
REMARK   19  A    between atoms: _42  and  _43
REMARK   20  A    between atoms: _43  and  _44
REMARK   21  A    between atoms: _48  and  _50
REMARK   22  A    between atoms: _50  and  _51
REMARK   23  A    between atoms: _50  and  _53
REMARK   24  A    between atoms: _55  and  _57
REMARK   25  A    between atoms: _57  and  _58
REMARK   26  A    between atoms: _57  and  _60
REMARK   27  A    between atoms: _60  and  _61
REMARK   28  A    between atoms: _61  and  _62
REMARK   29  A    between atoms: _64  and  _66
REMARK   30  A    between atoms: _66  and  _67
REMARK   31  A    between atoms: _66  and  _69
REMARK   32  A    between atoms: _69  and  _70
REMARK   33  A    between atoms: _70  and  _71
REMARK   34  A    between atoms: _71  and  _72
REMARK   35  A    between atoms: _81  and  _83
REMARK   36  A    between atoms: _83  and  _84
REMARK   37  A    between atoms: _83  and  _86
REMARK   38  A    between atoms: _86  and  _87
REMARK   39  A    between atoms: _89  and  _91
REMARK   40  A    between atoms: _91  and  _92
REMARK   41  A    between atoms: _91  and  _94
REMARK   42  A    between atoms: _94  and  _95
REMARK   43  A    between atoms: _98  and  _100
REMARK   44  A    between atoms: _100  and  _101
REMARK   45  A    between atoms: _100  and  _103
REMARK   46  A    between atoms: _103  and  _104
REMARK   47  A    between atoms: _104  and  _105
REMARK   48  A    between atoms: _105  and  _106
REMARK   49  A    between atoms: _115  and  _117
REMARK   50  A    between atoms: _117  and  _118
REMARK   51  A    between atoms: _117  and  _120
REMARK   52  A    between atoms: _120  and  _121
REMARK   53  A    between atoms: _121  and  _122
REMARK   54  A    between atoms: _122  and  _123
REMARK   55  A    between atoms: _132  and  _134
REMARK   56  A    between atoms: _134  and  _135
REMARK   57  A    between atoms: _134  and  _137
REMARK   58  A    between atoms: _137  and  _138
REMARK   59  A    between atoms: _148  and  _150
REMARK   60  A    between atoms: _150  and  _151
REMARK   61  A    between atoms: _150  and  _153
REMARK   62  A    between atoms: _153  and  _154
REMARK   63  A    between atoms: _154  and  _155
REMARK   64  A    between atoms: _158  and  _160
REMARK   65  A    between atoms: _160  and  _161
REMARK   66  A    between atoms: _160  and  _163
REMARK   67  A    between atoms: _163  and  _164
REMARK   68  A    between atoms: _164  and  _165
REMARK   69  A    between atoms: _168  and  _170
REMARK   70  A    between atoms: _170  and  _171
REMARK   71  A    between atoms: _170  and  _173
REMARK   72  A    between atoms: _173  and  _174
REMARK   73  A    between atoms: _174  and  _175
REMARK   74  A    between atoms: _177  and  _179
REMARK   75  A    between atoms: _179  and  _180
REMARK   76  A    between atoms: _179  and  _182
REMARK   77  A    between atoms: _185  and  _187
REMARK   78  A    between atoms: _187  and  _188
REMARK   79  A    between atoms: _187  and  _190
REMARK   80  A    between atoms: _190  and  _191
REMARK   81  A    between atoms: _191  and  _192
REMARK   82  A    between atoms: _195  and  _197
REMARK   83  A    between atoms: _197  and  _198
REMARK   84  A    between atoms: _197  and  _200
REMARK   85  A    between atoms: _200  and  _201
REMARK   86  A    between atoms: _207  and  _208
REMARK   87  A    between atoms: _213  and  _215
REMARK   88  A    between atoms: _215  and  _216
REMARK   89  A    between atoms: _215  and  _218
REMARK   90  A    between atoms: _220  and  _222
REMARK   91  A    between atoms: _222  and  _223
REMARK   92  A    between atoms: _222  and  _225
REMARK   93  A    between atoms: _225  and  _226
REMARK   94  A    between atoms: _229  and  _231
REMARK   95  A    between atoms: _231  and  _232
REMARK   96  A    between atoms: _231  and  _234
REMARK   97  A    between atoms: _234  and  _235
REMARK   98  A    between atoms: _235  and  _236
REMARK   99  A    between atoms: _239  and  _241
REMARK  100  A    between atoms: _241  and  _242
REMARK  101  A    between atoms: _241  and  _244
REMARK  102  A    between atoms: _244  and  _245
REMARK  103  A    between atoms: _245  and  _246
REMARK  104  A    between atoms: _248  and  _250
REMARK  105  A    between atoms: _250  and  _251
REMARK  106  A    between atoms: _250  and  _253
REMARK  107  A    between atoms: _253  and  _254
REMARK  108  A    between atoms: _257  and  _259
REMARK  109  A    between atoms: _259  and  _260
REMARK  110  A    between atoms: _263  and  _265
REMARK  111  A    between atoms: _265  and  _266
REMARK  112  A    between atoms: _265  and  _268
REMARK  113  A    between atoms: _268  and  _269
REMARK  114  A    between atoms: _272  and  _274
REMARK  115  A    between atoms: _274  and  _275
REMARK  116  A    between atoms: _274  and  _277
REMARK  117  A    between atoms: _280  and  _282
REMARK  118  A    between atoms: _282  and  _283
REMARK  119  A    between atoms: _282  and  _285
REMARK  120  A    between atoms: _285  and  _286
REMARK  121  A    between atoms: _291  and  _293
REMARK  122  A    between atoms: _293  and  _294
REMARK  123  A    between atoms: _293  and  _296
REMARK  124  A    between atoms: _296  and  _297
REMARK  125  A    between atoms: _301  and  _302
REMARK  126  A    between atoms: _307  and  _309
REMARK  127  A    between atoms: _309  and  _310
REMARK  128  A    between atoms: _313  and  _315
REMARK  129  A    between atoms: _315  and  _316
REMARK  130  A    between atoms: _319  and  _321
REMARK  131  A    between atoms: _321  and  _322
REMARK  132  A    between atoms: _321  and  _324
REMARK  133  A    between atoms: _324  and  _325
REMARK  134  A    between atoms: _328  and  _330
REMARK  135  A    between atoms: _330  and  _331
REMARK  136  A    between atoms: _330  and  _333
REMARK  137  A    between atoms: _333  and  _334
REMARK  138  A    between atoms: _334  and  _335
REMARK  139  A    between atoms: _335  and  _336
REMARK  140  A    between atoms: _345  and  _347
REMARK  141  A    between atoms: _347  and  _348
REMARK  142  A    between atoms: _347  and  _350
REMARK  143  A    between atoms: _350  and  _351
REMARK  144  A    between atoms: _356  and  _358
REMARK  145  A    between atoms: _358  and  _359
REMARK  146  A    between atoms: _358  and  _361
REMARK  147  A    between atoms: _364  and  _366
REMARK  148  A    between atoms: _366  and  _367
REMARK  149  A    between atoms: _366  and  _369
REMARK  150  A    between atoms: _369  and  _370
REMARK  151  A    between atoms: _373  and  _375
REMARK  152  A    between atoms: _375  and  _376
REMARK  153  A    between atoms: _379  and  _381
REMARK  154  A    between atoms: _381  and  _382
REMARK  155  A    between atoms: _381  and  _384
REMARK  156  A    between atoms: _387  and  _389
REMARK  157  A    between atoms: _389  and  _390
REMARK  158  A    between atoms: _389  and  _392
REMARK  159  A    between atoms: _392  and  _393
REMARK  160  A    between atoms: _393  and  _394
REMARK  161  A    between atoms: _397  and  _399
REMARK  162  A    between atoms: _399  and  _400
REMARK  163  A    between atoms: _399  and  _402
REMARK  164  A    between atoms: _402  and  _403
REMARK  165  A    between atoms: _408  and  _410
REMARK  166  A    between atoms: _410  and  _411
REMARK  167  A    between atoms: _410  and  _413
REMARK  168  A    between atoms: _413  and  _414
REMARK  169  A    between atoms: _416  and  _418
REMARK  170  A    between atoms: _418  and  _419
REMARK  171  A    between atoms: _418  and  _421
REMARK  172  A    between atoms: _421  and  _422
REMARK  173  A    between atoms: _422  and  _423
REMARK  174  A    between atoms: _423  and  _424
REMARK  175  A    between atoms: _424  and  _425
REMARK  176  A    between atoms: _429  and  _431
REMARK  177  A    between atoms: _431  and  _432
REMARK  178  A    between atoms: _431  and  _434
REMARK  179  A    between atoms: _434  and  _435
REMARK  180  A    between atoms: _440  and  _442
REMARK  181  A    between atoms: _442  and  _443
REMARK  182  A    between atoms: _442  and  _445
REMARK  183  A    between atoms: _448  and  _450
REMARK  184  A    between atoms: _450  and  _451
REMARK  185  A    between atoms: _450  and  _453
REMARK  186  A    between atoms: _453  and  _454
REMARK  187  A    between atoms: _464  and  _466
REMARK  188  A    between atoms: _466  and  _467
REMARK  189  A    between atoms: _469  and  _471
REMARK  190  A    between atoms: _471  and  _472
REMARK  191  A    between atoms: _471  and  _474
REMARK  192  A    between atoms: _474  and  _475
REMARK  193  A    between atoms: _480  and  _481
REMARK  194  A    between atoms: _483  and  _485
REMARK  195  A    between atoms: _485  and  _486
REMARK  196  A    between atoms: _485  and  _488
REMARK  197  A    between atoms: _488  and  _489
REMARK  198  A    between atoms: _494  and  _496
REMARK  199  A    between atoms: _496  and  _497
REMARK  200  A    between atoms: _496  and  _499
REMARK  201  A    between atoms: _501  and  _503
REMARK  202  A    between atoms: _503  and  _504
REMARK  203  A    between atoms: _503  and  _506
REMARK  204  A    between atoms: _506  and  _507
REMARK  205  A    between atoms: _513  and  _515
REMARK  206  A    between atoms: _515  and  _516
REMARK  207  A    between atoms: _515  and  _518
REMARK  208  A    between atoms: _518  and  _519
REMARK  209  A    between atoms: _521  and  _523
REMARK  210  A    between atoms: _523  and  _524
REMARK  211  A    between atoms: _523  and  _526
REMARK  212  A    between atoms: _526  and  _527
REMARK  213  A    between atoms: _537  and  _539
REMARK  214  A    between atoms: _539  and  _540
REMARK  215  A    between atoms: _542  and  _544
REMARK  216  A    between atoms: _544  and  _545
REMARK  217  A    between atoms: _544  and  _547
REMARK  218  A    between atoms: _547  and  _548
REMARK  219  A    between atoms: _548  and  _549
REMARK                            x       y       z     vdW  Elec       q    Type
REMARK                         _______ _______ _______ _____ _____    ______ ____
ROOT
ATOM      1  C   PHE A   3     -45.532  24.701  -7.456  0.00  0.00    +0.241 C 
ATOM      2  N   SER A   4     -44.730  25.478  -6.741  0.00  0.00    -0.295 N 
ATOM      3  H   SER A   4     -43.837  25.090  -6.376  0.00  0.00    +0.150 HD
ATOM      4  O   PHE A   3     -46.589  25.107  -7.947  0.00  0.00    -0.273 OA
ENDROOT
BRANCH   1   5
ATOM      5  CA  PHE A   3     -45.069  23.260  -7.668  0.00  0.00    +0.153 C 
BRANCH   5   8
ATOM      6  C   CYS A   2     -45.954  21.332  -6.458  0.00  0.00    +0.242 C 
ATOM      7  O   CYS A   2     -44.866  21.070  -5.953  0.00  0.00    -0.273 OA
ATOM      8  N   PHE A   3     -46.143  22.349  -7.286  0.00  0.00    -0.297 N 
ATOM      9  H   PHE A   3     -47.093  22.504  -7.679  0.00  0.00    +0.150 HD
BRANCH   6  10
ATOM     10  CA  CYS A   2     -47.169  20.460  -6.178  0.00  0.00    +0.160 C 
BRANCH  10  12
ATOM     11  C   HIS A   1     -47.012  18.130  -6.830  0.00  0.00    +0.239 C 
ATOM     12  N   CYS A   2     -46.656  19.113  -6.015  0.00  0.00    -0.296 N 
ATOM     13  H   CYS A   2     -45.992  18.914  -5.239  0.00  0.00    +0.150 HD
ATOM     14  O   HIS A   1     -47.840  18.255  -7.724  0.00  0.00    -0.274 OA
BRANCH  11  15
ATOM     15  CA  HIS A   1     -46.321  16.809  -6.602  0.00  0.00    +0.151 C 
BRANCH  15  16
ATOM     16  N   HIS A   1     -47.187  15.685  -6.946  0.00  0.00    -0.238 NA
ATOM     17  H   HIS A   1     -47.836  15.774  -7.754  0.00  0.00    +0.142 HD
ENDBRANCH  15  16
BRANCH  15  18
ATOM     18  CB  HIS A   1     -45.041  16.836  -7.454  0.00  0.00    +0.074 C 
BRANCH  18  19
ATOM     19  CG  HIS A   1     -43.987  15.878  -7.006  0.00  0.00    +0.082 A 
ATOM     20  CD2 HIS A   1     -42.995  16.014  -6.096  0.00  0.00    +0.115 A 
ATOM     21  NE2 HIS A   1     -42.345  14.807  -6.025  0.00  0.00    -0.221 NA
ATOM     22  CE1 HIS A   1     -42.915  13.961  -6.864  0.00  0.00    +0.199 A 
ATOM     23  ND1 HIS A   1     -43.909  14.583  -7.471  0.00  0.00    -0.227 NA
ENDBRANCH  18  19
ENDBRANCH  15  18
ENDBRANCH  11  15
ENDBRANCH  10  12
BRANCH  10  24
ATOM     24  CB  CYS A   2     -47.912  20.928  -4.926  0.00  0.00    +0.098 C 
ATOM     25  SG  CYS A   2     -49.587  20.246  -4.845  0.00  0.00    -0.080 S 
ENDBRANCH  10  24
ENDBRANCH   6  10
ENDBRANCH   5   8
BRANCH   5  26
ATOM     26  CB  PHE A   3     -44.704  23.056  -9.144  0.00  0.00    +0.055 C 
BRANCH  26  27
ATOM     27  CG  PHE A   3     -43.963  21.770  -9.428  0.00  0.00    -0.020 A 
ATOM     28  CD2 PHE A   3     -42.576  21.713  -9.317  0.00  0.00    -0.004 A 
ATOM     29  CE2 PHE A   3     -41.882  20.534  -9.593  0.00  0.00    -0.000 A 
ATOM     30  CZ  PHE A   3     -42.581  19.389  -9.988  0.00  0.00    -0.000 A 
ATOM     31  CE1 PHE A   3     -43.965  19.434 -10.101  0.00  0.00    -0.000 A 
ATOM     32  CD1 PHE A   3     -44.649  20.622  -9.820  0.00  0.00    -0.004 A 
ENDBRANCH  26  27
ENDBRANCH   5  26
ENDBRANCH   1   5
BRANCH   2  33
ATOM     33  CA  SER A   4     -45.077  26.867  -6.456  0.00  0.00    +0.178 C 
BRANCH  33  34
ATOM     34  C   SER A   4     -43.973  27.847  -6.868  0.00  0.00    +0.243 C 
ATOM     35  O   SER A   4     -42.791  27.629  -6.590  0.00  0.00    -0.273 OA
ATOM     36  N   TRP A   5     -44.376  28.923  -7.535  0.00  0.00    -0.297 N 
ATOM     37  H   TRP A   5     -45.388  29.029  -7.752  0.00  0.00    +0.150 HD
BRANCH  36  38
ATOM     38  CA  TRP A   5     -43.453  29.956  -7.972  0.00  0.00    +0.153 C 
BRANCH  38  39
ATOM     39  C   TRP A   5     -43.763  31.269  -7.253  0.00  0.00    +0.241 C 
ATOM     40  O   TRP A   5     -44.902  31.514  -6.845  0.00  0.00    -0.273 OA
ATOM     41  N   GLY A   6     -42.744  32.111  -7.110  0.00  0.00    -0.296 N 
ATOM     42  H   GLY A   6     -41.805  31.841  -7.466  0.00  0.00    +0.150 HD
BRANCH  41  43
ATOM     43  CA  GLY A   6     -42.918  33.401  -6.465  0.00  0.00    +0.163 C 
BRANCH  43  44
ATOM     44  C   GLY A   6     -41.745  34.283  -6.842  0.00  0.00    +0.229 C 
ATOM     45  O   GLY A   6     -40.671  33.768  -7.164  0.00  0.00    -0.286 OA
ENDBRANCH  43  44
ENDBRANCH  41  43
ENDBRANCH  38  39
BRANCH  38  46
ATOM     46  CB  TRP A   5     -43.564  30.191  -9.481  0.00  0.00    +0.057 C 
BRANCH  46  47
ATOM     47  CG  TRP A   5     -42.533  31.164  -9.964  0.00  0.00    -0.002 A 
ATOM     48  CD2 TRP A   5     -42.694  32.580 -10.133  0.00  0.00    +0.013 A 
ATOM     49  CE3 TRP A   5     -43.781  33.457 -10.009  0.00  0.00    +0.001 A 
ATOM     50  CZ3 TRP A   5     -43.574  34.819 -10.246  0.00  0.00    +0.000 A 
ATOM     51  CH2 TRP A   5     -42.303  35.310 -10.603  0.00  0.00    +0.001 A 
ATOM     52  CZ2 TRP A   5     -41.222  34.474 -10.733  0.00  0.00    +0.017 A 
ATOM     53  CE2 TRP A   5     -41.430  33.105 -10.495  0.00  0.00    +0.056 A 
ATOM     54  NE1 TRP A   5     -40.550  32.056 -10.551  0.00  0.00    -0.352 N 
ATOM     55  HE1 TRP A   5     -39.542  32.125 -10.796  0.00  0.00    +0.166 HD
ATOM     56  CD1 TRP A   5     -41.218  30.897 -10.231  0.00  0.00    +0.068 A 
ENDBRANCH  46  47
ENDBRANCH  38  46
ENDBRANCH  36  38
ENDBRANCH  33  34
BRANCH  33  57
ATOM     57  CB  SER A   4     -45.384  27.021  -4.953  0.00  0.00    +0.166 C 
BRANCH  57  58
ATOM     58  OG  SER A   4     -45.813  28.330  -4.652  0.00  0.00    -0.380 OA
ATOM     59  H   SER A   4     -46.002  28.399  -3.683  0.00  0.00    +0.211 HD
ENDBRANCH  57  58
ENDBRANCH  33  57
ENDBRANCH   2  33
TORSDOF 21
REMARK  Name = ../refined-set-2016/3jrx/3jrx_pocket.pdb
REMARK  219 active torsions:
REMARK  status: ('A' for Active; 'I' for Inactive)
REMARK    1  A    between atoms: _1  and  _3
REMARK    2  A    between atoms: _3  and  _4
REMARK    3  A    between atoms: _6  and  _8
REMARK    4  A    between atoms: _8  and  _9
REMARK    5  A    between atoms: _8  and  _11
REMARK    6  A    between atoms: _11  and  _12
REMARK    7  A    between atoms: _15  and  _17
REMARK    8  A    between atoms: _17  and  _18
REMARK    9  A    between atoms: _21  and  _23
REMARK   10  A    between atoms: _23  and  _24
REMARK   11  A    between atoms: _27  and  _29
REMARK   12  A    between atoms: _29  and  _30
REMARK   13  A    between atoms: _29  and  _32
REMARK   14  A    between atoms: _35  and  _37
REMARK   15  A    between atoms: _37  and  _38
REMARK   16  A    between atoms: _37  and  _40
REMARK   17  A    between atoms: _40  and  _41
REMARK   18  A    between atoms: _41  and  _42
REMARK   19  A    between atoms: _42  and  _43
REMARK   20  A    between atoms: _43  and  _44
REMARK   21  A    between atoms: _48  and  _50
REMARK   22  A    between atoms: _50  and  _51
REMARK   23  A    between atoms: _50  and  _53
REMARK   24  A    between atoms: _55  and  _57
REMARK   25  A    between atoms: _57  and  _58
REMARK   26  A    between atoms: _57  and  _60
REMARK   27  A    between atoms: _60  and  _61
REMARK   28  A    between atoms: _61  and  _62
REMARK   29  A    between atoms: _64  and  _66
REMARK   30  A    between atoms: _66  and  _67
REMARK   31  A    between atoms: _66  and  _69
REMARK   32  A    between atoms: _69  and  _70
REMARK   33  A    between atoms: _70  and  _71
REMARK   34  A    between atoms: _71  and  _72
REMARK   35  A    between atoms: _81  and  _83
REMARK   36  A    between atoms: _83  and  _84
REMARK   37  A    between atoms: _83  and  _86
REMARK   38  A    between atoms: _86  and  _87
REMARK   39  A    between atoms: _89  and  _91
REMARK   40  A    between atoms: _91  and  _92
REMARK   41  A    between atoms: _91  and  _94
REMARK   42  A    between atoms: _94  and  _95
REMARK   43  A    between atoms: _98  and  _100
REMARK   44  A    between atoms: _100  and  _101
REMARK   45  A    between atoms: _100  and  _103
REMARK   46  A    between atoms: _103  and  _104
REMARK   47  A    between atoms: _104  and  _105
REMARK   48  A    between atoms: _105  and  _106
REMARK   49  A    between atoms: _115  and  _117
REMARK   50  A    between atoms: _117  and  _118
REMARK   51  A    between atoms: _117  and  _120
REMARK   52  A    between atoms: _120  and  _121
REMARK   53  A    between atoms: _121  and  _122
REMARK   54  A    between atoms: _122  and  _123
REMARK   55  A    between atoms: _132  and  _134
REMARK   56  A    between atoms: _134  and  _135
REMARK   57  A    between atoms: _134  and  _137
REMARK   58  A    between atoms: _137  and  _138
REMARK   59  A    between atoms: _148  and  _150
REMARK   60  A    between atoms: _150  and  _151
REMARK   61  A    between atoms: _150  and  _153
REMARK   62  A    between atoms: _153  and  _154
REMARK   63  A    between atoms: _154  and  _155
REMARK   64  A    between atoms: _158  and  _160
REMARK   65  A    between atoms: _160  and  _161
REMARK   66  A    between atoms: _160  and  _163
REMARK   67  A    between atoms: _163  and  _164
REMARK   68  A    between atoms: _164  and  _165
REMARK   69  A    between atoms: _168  and  _170
REMARK   70  A    between atoms: _170  and  _171
REMARK   71  A    between atoms: _170  and  _173
REMARK   72  A    between atoms: _173  and  _174
REMARK   73  A    between atoms: _174  and  _175
REMARK   74  A    between atoms: _177  and  _179
REMARK   75  A    between atoms: _179  and  _180
REMARK   76  A    between atoms: _179  and  _182
REMARK   77  A    between atoms: _185  and  _187
REMARK   78  A    between atoms: _187  and  _188
REMARK   79  A    between atoms: _187  and  _190
REMARK   80  A    between atoms: _190  and  _191
REMARK   81  A    between atoms: _191  and  _192
REMARK   82  A    between atoms: _195  and  _197
REMARK   83  A    between atoms: _197  and  _198
REMARK   84  A    between atoms: _197  and  _200
REMARK   85  A    between atoms: _200  and  _201
REMARK   86  A    between atoms: _207  and  _208
REMARK   87  A    between atoms: _213  and  _215
REMARK   88  A    between atoms: _215  and  _216
REMARK   89  A    between atoms: _215  and  _218
REMARK   90  A    between atoms: _220  and  _222
REMARK   91  A    between atoms: _222  and  _223
REMARK   92  A    between atoms: _222  and  _225
REMARK   93  A    between atoms: _225  and  _226
REMARK   94  A    between atoms: _229  and  _231
REMARK   95  A    between atoms: _231  and  _232
REMARK   96  A    between atoms: _231  and  _234
REMARK   97  A    between atoms: _234  and  _235
REMARK   98  A    between atoms: _235  and  _236
REMARK   99  A    between atoms: _239  and  _241
REMARK  100  A    between atoms: _241  and  _242
REMARK  101  A    between atoms: _241  and  _244
REMARK  102  A    between atoms: _244  and  _245
REMARK  103  A    between atoms: _245  and  _246
REMARK  104  A    between atoms: _248  and  _250
REMARK  105  A    between atoms: _250  and  _251
REMARK  106  A    between atoms: _250  and  _253
REMARK  107  A    between atoms: _253  and  _254
REMARK  108  A    between atoms: _257  and  _259
REMARK  109  A    between atoms: _259  and  _260
REMARK  110  A    between atoms: _263  and  _265
REMARK  111  A    between atoms: _265  and  _266
REMARK  112  A    between atoms: _265  and  _268
REMARK  113  A    between atoms: _268  and  _269
REMARK  114  A    between atoms: _272  and  _274
REMARK  115  A    between atoms: _274  and  _275
REMARK  116  A    between atoms: _274  and  _277
REMARK  117  A    between atoms: _280  and  _282
REMARK  118  A    between atoms: _282  and  _283
REMARK  119  A    between atoms: _282  and  _285
REMARK  120  A    between atoms: _285  and  _286
REMARK  121  A    between atoms: _291  and  _293
REMARK  122  A    between atoms: _293  and  _294
REMARK  123  A    between atoms: _293  and  _296
REMARK  124  A    between atoms: _296  and  _297
REMARK  125  A    between atoms: _301  and  _302
REMARK  126  A    between atoms: _307  and  _309
REMARK  127  A    between atoms: _309  and  _310
REMARK  128  A    between atoms: _313  and  _315
REMARK  129  A    between atoms: _315  and  _316
REMARK  130  A    between atoms: _319  and  _321
REMARK  131  A    between atoms: _321  and  _322
REMARK  132  A    between atoms: _321  and  _324
REMARK  133  A    between atoms: _324  and  _325
REMARK  134  A    between atoms: _328  and  _330
REMARK  135  A    between atoms: _330  and  _331
REMARK  136  A    between atoms: _330  and  _333
REMARK  137  A    between atoms: _333  and  _334
REMARK  138  A    between atoms: _334  and  _335
REMARK  139  A    between atoms: _335  and  _336
REMARK  140  A    between atoms: _345  and  _347
REMARK  141  A    between atoms: _347  and  _348
REMARK  142  A    between atoms: _347  and  _350
REMARK  143  A    between atoms: _350  and  _351
REMARK  144  A    between atoms: _356  and  _358
REMARK  145  A    between atoms: _358  and  _359
REMARK  146  A    between atoms: _358  and  _361
REMARK  147  A    between atoms: _364  and  _366
REMARK  148  A    between atoms: _366  and  _367
REMARK  149  A    between atoms: _366  and  _369
REMARK  150  A    between atoms: _369  and  _370
REMARK  151  A    between atoms: _373  and  _375
REMARK  152  A    between atoms: _375  and  _376
REMARK  153  A    between atoms: _379  and  _381
REMARK  154  A    between atoms: _381  and  _382
REMARK  155  A    between atoms: _381  and  _384
REMARK  156  A    between atoms: _387  and  _389
REMARK  157  A    between atoms: _389  and  _390
REMARK  158  A    between atoms: _389  and  _392
REMARK  159  A    between atoms: _392  and  _393
REMARK  160  A    between atoms: _393  and  _394
REMARK  161  A    between atoms: _397  and  _399
REMARK  162  A    between atoms: _399  and  _400
REMARK  163  A    between atoms: _399  and  _402
REMARK  164  A    between atoms: _402  and  _403
REMARK  165  A    between atoms: _408  and  _410
REMARK  166  A    between atoms: _410  and  _411
REMARK  167  A    between atoms: _410  and  _413
REMARK  168  A    between atoms: _413  and  _414
REMARK  169  A    between atoms: _416  and  _418
REMARK  170  A    between atoms: _418  and  _419
REMARK  171  A    between atoms: _418  and  _421
REMARK  172  A    between atoms: _421  and  _422
REMARK  173  A    between atoms: _422  and  _423
REMARK  174  A    between atoms: _423  and  _424
REMARK  175  A    between atoms: _424  and  _425
REMARK  176  A    between atoms: _429  and  _431
REMARK  177  A    between atoms: _431  and  _432
REMARK  178  A    between atoms: _431  and  _434
REMARK  179  A    between atoms: _434  and  _435
REMARK  180  A    between atoms: _440  and  _442
REMARK  181  A    between atoms: _442  and  _443
REMARK  182  A    between atoms: _442  and  _445
REMARK  183  A    between atoms: _448  and  _450
REMARK  184  A    between atoms: _450  and  _451
REMARK  185  A    between atoms: _450  and  _453
REMARK  186  A    between atoms: _453  and  _454
REMARK  187  A    between atoms: _464  and  _466
REMARK  188  A    between atoms: _466  and  _467
REMARK  189  A    between atoms: _469  and  _471
REMARK  190  A    between atoms: _471  and  _472
REMARK  191  A    between atoms: _471  and  _474
REMARK  192  A    between atoms: _474  and  _475
REMARK  193  A    between atoms: _480  and  _481
REMARK  194  A    between atoms: _483  and  _485
REMARK  195  A    between atoms: _485  and  _486
REMARK  196  A    between atoms: _485  and  _488
REMARK  197  A    between atoms: _488  and  _489
REMARK  198  A    between atoms: _494  and  _496
REMARK  199  A    between atoms: _496  and  _497
REMARK  200  A    between atoms: _496  and  _499
REMARK  201  A    between atoms: _501  and  _503
REMARK  202  A    between atoms: _503  and  _504
REMARK  203  A    between atoms: _503  and  _506
REMARK  204  A    between atoms: _506  and  _507
REMARK  205  A    between atoms: _513  and  _515
REMARK  206  A    between atoms: _515  and  _516
REMARK  207  A    between atoms: _515  and  _518
REMARK  208  A    between atoms: _518  and  _519
REMARK  209  A    between atoms: _521  and  _523
REMARK  210  A    between atoms: _523  and  _524
REMARK  211  A    between atoms: _523  and  _526
REMARK  212  A    between atoms: _526  and  _527
REMARK  213  A    between atoms: _537  and  _539
REMARK  214  A    between atoms: _539  and  _540
REMARK  215  A    between atoms: _542  and  _544
REMARK  216  A    between atoms: _544  and  _545
REMARK  217  A    between atoms: _544  and  _547
REMARK  218  A    between atoms: _547  and  _548
REMARK  219  A    between atoms: _548  and  _549
REMARK                            x       y       z     vdW  Elec       q    Type
REMARK                         _______ _______ _______ _____ _____    ______ ____
ROOT
ATOM      1  CA  MET A   1     -47.443  26.698  -1.515  0.00  0.00    +0.134 C 
ENDROOT
BRANCH   1   2
ATOM      2  N   MET A   1     -47.375  28.123  -1.782  0.00  0.00    -0.239 NA
ATOM      3  H   MET A   1     -46.459  28.611  -1.718  0.00  0.00    +0.142 HD
ENDBRANCH   1   2
BRANCH   1   4
ATOM      4  C   MET A   1     -48.333  26.429  -0.300  0.00  0.00    +0.224 C 
ATOM      5  O   MET A   1     -49.237  25.597  -0.360  0.00  0.00    -0.287 OA
ENDBRANCH   1   4
BRANCH   1   6
ATOM      6  CB  MET A   1     -46.039  26.126  -1.281  0.00  0.00    +0.037 C 
BRANCH   6   7
ATOM      7  CG  MET A   1     -46.001  24.627  -1.037  0.00  0.00    +0.059 C 
BRANCH   7   8
ATOM      8  SD  MET A   1     -46.735  23.657  -2.381  0.00  0.00    -0.139 S 
ATOM      9  CE  MET A   1     -45.300  23.340  -3.382  0.00  0.00    +0.069 C 
ENDBRANCH   7   8
ENDBRANCH   6   7
ENDBRANCH   1   6
TORSDOF 5
REMARK  Name = ../refined-set-2016/3jrx/3jrx_pocket.pdb
REMARK  219 active torsions:
REMARK  status: ('A' for Active; 'I' for Inactive)
REMARK    1  A    between atoms: _1  and  _3
REMARK    2  A    between atoms: _3  and  _4
REMARK    3  A    between atoms: _6  and  _8
REMARK    4  A    between atoms: _8  and  _9
REMARK    5  A    between atoms: _8  and  _11
REMARK    6  A    between atoms: _11  and  _12
REMARK    7  A    between atoms: _15  and  _17
REMARK    8  A    between atoms: _17  and  _18
REMARK    9  A    between atoms: _21  and  _23
REMARK   10  A    between atoms: _23  and  _24
REMARK   11  A    between atoms: _27  and  _29
REMARK   12  A    between atoms: _29  and  _30
REMARK   13  A    between atoms: _29  and  _32
REMARK   14  A    between atoms: _35  and  _37
REMARK   15  A    between atoms: _37  and  _38
REMARK   16  A    between atoms: _37  and  _40
REMARK   17  A    between atoms: _40  and  _41
REMARK   18  A    between atoms: _41  and  _42
REMARK   19  A    between atoms: _42  and  _43
REMARK   20  A    between atoms: _43  and  _44
REMARK   21  A    between atoms: _48  and  _50
REMARK   22  A    between atoms: _50  and  _51
REMARK   23  A    between atoms: _50  and  _53
REMARK   24  A    between atoms: _55  and  _57
REMARK   25  A    between atoms: _57  and  _58
REMARK   26  A    between atoms: _57  and  _60
REMARK   27  A    between atoms: _60  and  _61
REMARK   28  A    between atoms: _61  and  _62
REMARK   29  A    between atoms: _64  and  _66
REMARK   30  A    between atoms: _66  and  _67
REMARK   31  A    between atoms: _66  and  _69
REMARK   32  A    between atoms: _69  and  _70
REMARK   33  A    between atoms: _70  and  _71
REMARK   34  A    between atoms: _71  and  _72
REMARK   35  A    between atoms: _81  and  _83
REMARK   36  A    between atoms: _83  and  _84
REMARK   37  A    between atoms: _83  and  _86
REMARK   38  A    between atoms: _86  and  _87
REMARK   39  A    between atoms: _89  and  _91
REMARK   40  A    between atoms: _91  and  _92
REMARK   41  A    between atoms: _91  and  _94
REMARK   42  A    between atoms: _94  and  _95
REMARK   43  A    between atoms: _98  and  _100
REMARK   44  A    between atoms: _100  and  _101
REMARK   45  A    between atoms: _100  and  _103
REMARK   46  A    between atoms: _103  and  _104
REMARK   47  A    between atoms: _104  and  _105
REMARK   48  A    between atoms: _105  and  _106
REMARK   49  A    between atoms: _115  and  _117
REMARK   50  A    between atoms: _117  and  _118
REMARK   51  A    between atoms: _117  and  _120
REMARK   52  A    between atoms: _120  and  _121
REMARK   53  A    between atoms: _121  and  _122
REMARK   54  A    between atoms: _122  and  _123
REMARK   55  A    between atoms: _132  and  _134
REMARK   56  A    between atoms: _134  and  _135
REMARK   57  A    between atoms: _134  and  _137
REMARK   58  A    between atoms: _137  and  _138
REMARK   59  A    between atoms: _148  and  _150
REMARK   60  A    between atoms: _150  and  _151
REMARK   61  A    between atoms: _150  and  _153
REMARK   62  A    between atoms: _153  and  _154
REMARK   63  A    between atoms: _154  and  _155
REMARK   64  A    between atoms: _158  and  _160
REMARK   65  A    between atoms: _160  and  _161
REMARK   66  A    between atoms: _160  and  _163
REMARK   67  A    between atoms: _163  and  _164
REMARK   68  A    between atoms: _164  and  _165
REMARK   69  A    between atoms: _168  and  _170
REMARK   70  A    between atoms: _170  and  _171
REMARK   71  A    between atoms: _170  and  _173
REMARK   72  A    between atoms: _173  and  _174
REMARK   73  A    between atoms: _174  and  _175
REMARK   74  A    between atoms: _177  and  _179
REMARK   75  A    between atoms: _179  and  _180
REMARK   76  A    between atoms: _179  and  _182
REMARK   77  A    between atoms: _185  and  _187
REMARK   78  A    between atoms: _187  and  _188
REMARK   79  A    between atoms: _187  and  _190
REMARK   80  A    between atoms: _190  and  _191
REMARK   81  A    between atoms: _191  and  _192
REMARK   82  A    between atoms: _195  and  _197
REMARK   83  A    between atoms: _197  and  _198
REMARK   84  A    between atoms: _197  and  _200
REMARK   85  A    between atoms: _200  and  _201
REMARK   86  A    between atoms: _207  and  _208
REMARK   87  A    between atoms: _213  and  _215
REMARK   88  A    between atoms: _215  and  _216
REMARK   89  A    between atoms: _215  and  _218
REMARK   90  A    between atoms: _220  and  _222
REMARK   91  A    between atoms: _222  and  _223
REMARK   92  A    between atoms: _222  and  _225
REMARK   93  A    between atoms: _225  and  _226
REMARK   94  A    between atoms: _229  and  _231
REMARK   95  A    between atoms: _231  and  _232
REMARK   96  A    between atoms: _231  and  _234
REMARK   97  A    between atoms: _234  and  _235
REMARK   98  A    between atoms: _235  and  _236
REMARK   99  A    between atoms: _239  and  _241
REMARK  100  A    between atoms: _241  and  _242
REMARK  101  A    between atoms: _241  and  _244
REMARK  102  A    between atoms: _244  and  _245
REMARK  103  A    between atoms: _245  and  _246
REMARK  104  A    between atoms: _248  and  _250
REMARK  105  A    between atoms: _250  and  _251
REMARK  106  A    between atoms: _250  and  _253
REMARK  107  A    between atoms: _253  and  _254
REMARK  108  A    between atoms: _257  and  _259
REMARK  109  A    between atoms: _259  and  _260
REMARK  110  A    between atoms: _263  and  _265
REMARK  111  A    between atoms: _265  and  _266
REMARK  112  A    between atoms: _265  and  _268
REMARK  113  A    between atoms: _268  and  _269
REMARK  114  A    between atoms: _272  and  _274
REMARK  115  A    between atoms: _274  and  _275
REMARK  116  A    between atoms: _274  and  _277
REMARK  117  A    between atoms: _280  and  _282
REMARK  118  A    between atoms: _282  and  _283
REMARK  119  A    between atoms: _282  and  _285
REMARK  120  A    between atoms: _285  and  _286
REMARK  121  A    between atoms: _291  and  _293
REMARK  122  A    between atoms: _293  and  _294
REMARK  123  A    between atoms: _293  and  _296
REMARK  124  A    between atoms: _296  and  _297
REMARK  125  A    between atoms: _301  and  _302
REMARK  126  A    between atoms: _307  and  _309
REMARK  127  A    between atoms: _309  and  _310
REMARK  128  A    between atoms: _313  and  _315
REMARK  129  A    between atoms: _315  and  _316
REMARK  130  A    between atoms: _319  and  _321
REMARK  131  A    between atoms: _321  and  _322
REMARK  132  A    between atoms: _321  and  _324
REMARK  133  A    between atoms: _324  and  _325
REMARK  134  A    between atoms: _328  and  _330
REMARK  135  A    between atoms: _330  and  _331
REMARK  136  A    between atoms: _330  and  _333
REMARK  137  A    between atoms: _333  and  _334
REMARK  138  A    between atoms: _334  and  _335
REMARK  139  A    between atoms: _335  and  _336
REMARK  140  A    between atoms: _345  and  _347
REMARK  141  A    between atoms: _347  and  _348
REMARK  142  A    between atoms: _347  and  _350
REMARK  143  A    between atoms: _350  and  _351
REMARK  144  A    between atoms: _356  and  _358
REMARK  145  A    between atoms: _358  and  _359
REMARK  146  A    between atoms: _358  and  _361
REMARK  147  A    between atoms: _364  and  _366
REMARK  148  A    between atoms: _366  and  _367
REMARK  149  A    between atoms: _366  and  _369
REMARK  150  A    between atoms: _369  and  _370
REMARK  151  A    between atoms: _373  and  _375
REMARK  152  A    between atoms: _375  and  _376
REMARK  153  A    between atoms: _379  and  _381
REMARK  154  A    between atoms: _381  and  _382
REMARK  155  A    between atoms: _381  and  _384
REMARK  156  A    between atoms: _387  and  _389
REMARK  157  A    between atoms: _389  and  _390
REMARK  158  A    between atoms: _389  and  _392
REMARK  159  A    between atoms: _392  and  _393
REMARK  160  A    between atoms: _393  and  _394
REMARK  161  A    between atoms: _397  and  _399
REMARK  162  A    between atoms: _399  and  _400
REMARK  163  A    between atoms: _399  and  _402
REMARK  164  A    between atoms: _402  and  _403
REMARK  165  A    between atoms: _408  and  _410
REMARK  166  A    between atoms: _410  and  _411
REMARK  167  A    between atoms: _410  and  _413
REMARK  168  A    between atoms: _413  and  _414
REMARK  169  A    between atoms: _416  and  _418
REMARK  170  A    between atoms: _418  and  _419
REMARK  171  A    between atoms: _418  and  _421
REMARK  172  A    between atoms: _421  and  _422
REMARK  173  A    between atoms: _422  and  _423
REMARK  174  A    between atoms: _423  and  _424
REMARK  175  A    between atoms: _424  and  _425
REMARK  176  A    between atoms: _429  and  _431
REMARK  177  A    between atoms: _431  and  _432
REMARK  178  A    between atoms: _431  and  _434
REMARK  179  A    between atoms: _434  and  _435
REMARK  180  A    between atoms: _440  and  _442
REMARK  181  A    between atoms: _442  and  _443
REMARK  182  A    between atoms: _442  and  _445
REMARK  183  A    between atoms: _448  and  _450
REMARK  184  A    between atoms: _450  and  _451
REMARK  185  A    between atoms: _450  and  _453
REMARK  186  A    between atoms: _453  and  _454
REMARK  187  A    between atoms: _464  and  _466
REMARK  188  A    between atoms: _466  and  _467
REMARK  189  A    between atoms: _469  and  _471
REMARK  190  A    between atoms: _471  and  _472
REMARK  191  A    between atoms: _471  and  _474
REMARK  192  A    between atoms: _474  and  _475
REMARK  193  A    between atoms: _480  and  _481
REMARK  194  A    between atoms: _483  and  _485
REMARK  195  A    between atoms: _485  and  _486
REMARK  196  A    between atoms: _485  and  _488
REMARK  197  A    between atoms: _488  and  _489
REMARK  198  A    between atoms: _494  and  _496
REMARK  199  A    between atoms: _496  and  _497
REMARK  200  A    between atoms: _496  and  _499
REMARK  201  A    between atoms: _501  and  _503
REMARK  202  A    between atoms: _503  and  _504
REMARK  203  A    between atoms: _503  and  _506
REMARK  204  A    between atoms: _506  and  _507
REMARK  205  A    between atoms: _513  and  _515
REMARK  206  A    between atoms: _515  and  _516
REMARK  207  A    between atoms: _515  and  _518
REMARK  208  A    between atoms: _518  and  _519
REMARK  209  A    between atoms: _521  and  _523
REMARK  210  A    between atoms: _523  and  _524
REMARK  211  A    between atoms: _523  and  _526
REMARK  212  A    between atoms: _526  and  _527
REMARK  213  A    between atoms: _537  and  _539
REMARK  214  A    between atoms: _539  and  _540
REMARK  215  A    between atoms: _542  and  _544
REMARK  216  A    between atoms: _544  and  _545
REMARK  217  A    between atoms: _544  and  _547
REMARK  218  A    between atoms: _547  and  _548
REMARK  219  A    between atoms: _548  and  _549
REMARK                            x       y       z     vdW  Elec       q    Type
REMARK                         _______ _______ _______ _____ _____    ______ ____
ROOT
ATOM      1  O   HOH     1     -52.973  17.816 -23.205  0.00  0.00    +0.000 OA
ENDROOT
TORSDOF 0
REMARK  Name = ../refined-set-2016/3jrx/3jrx_pocket.pdb
REMARK  219 active torsions:
REMARK  status: ('A' for Active; 'I' for Inactive)
REMARK    1  A    between atoms: _1  and  _3
REMARK    2  A    between atoms: _3  and  _4
REMARK    3  A    between atoms: _6  and  _8
REMARK    4  A    between atoms: _8  and  _9
REMARK    5  A    between atoms: _8  and  _11
REMARK    6  A    between atoms: _11  and  _12
REMARK    7  A    between atoms: _15  and  _17
REMARK    8  A    between atoms: _17  and  _18
REMARK    9  A    between atoms: _21  and  _23
REMARK   10  A    between atoms: _23  and  _24
REMARK   11  A    between atoms: _27  and  _29
REMARK   12  A    between atoms: _29  and  _30
REMARK   13  A    between atoms: _29  and  _32
REMARK   14  A    between atoms: _35  and  _37
REMARK   15  A    between atoms: _37  and  _38
REMARK   16  A    between atoms: _37  and  _40
REMARK   17  A    between atoms: _40  and  _41
REMARK   18  A    between atoms: _41  and  _42
REMARK   19  A    between atoms: _42  and  _43
REMARK   20  A    between atoms: _43  and  _44
REMARK   21  A    between atoms: _48  and  _50
REMARK   22  A    between atoms: _50  and  _51
REMARK   23  A    between atoms: _50  and  _53
REMARK   24  A    between atoms: _55  and  _57
REMARK   25  A    between atoms: _57  and  _58
REMARK   26  A    between atoms: _57  and  _60
REMARK   27  A    between atoms: _60  and  _61
REMARK   28  A    between atoms: _61  and  _62
REMARK   29  A    between atoms: _64  and  _66
REMARK   30  A    between atoms: _66  and  _67
REMARK   31  A    between atoms: _66  and  _69
REMARK   32  A    between atoms: _69  and  _70
REMARK   33  A    between atoms: _70  and  _71
REMARK   34  A    between atoms: _71  and  _72
REMARK   35  A    between atoms: _81  and  _83
REMARK   36  A    between atoms: _83  and  _84
REMARK   37  A    between atoms: _83  and  _86
REMARK   38  A    between atoms: _86  and  _87
REMARK   39  A    between atoms: _89  and  _91
REMARK   40  A    between atoms: _91  and  _92
REMARK   41  A    between atoms: _91  and  _94
REMARK   42  A    between atoms: _94  and  _95
REMARK   43  A    between atoms: _98  and  _100
REMARK   44  A    between atoms: _100  and  _101
REMARK   45  A    between atoms: _100  and  _103
REMARK   46  A    between atoms: _103  and  _104
REMARK   47  A    between atoms: _104  and  _105
REMARK   48  A    between atoms: _105  and  _106
REMARK   49  A    between atoms: _115  and  _117
REMARK   50  A    between atoms: _117  and  _118
REMARK   51  A    between atoms: _117  and  _120
REMARK   52  A    between atoms: _120  and  _121
REMARK   53  A    between atoms: _121  and  _122
REMARK   54  A    between atoms: _122  and  _123
REMARK   55  A    between atoms: _132  and  _134
REMARK   56  A    between atoms: _134  and  _135
REMARK   57  A    between atoms: _134  and  _137
REMARK   58  A    between atoms: _137  and  _138
REMARK   59  A    between atoms: _148  and  _150
REMARK   60  A    between atoms: _150  and  _151
REMARK   61  A    between atoms: _150  and  _153
REMARK   62  A    between atoms: _153  and  _154
REMARK   63  A    between atoms: _154  and  _155
REMARK   64  A    between atoms: _158  and  _160
REMARK   65  A    between atoms: _160  and  _161
REMARK   66  A    between atoms: _160  and  _163
REMARK   67  A    between atoms: _163  and  _164
REMARK   68  A    between atoms: _164  and  _165
REMARK   69  A    between atoms: _168  and  _170
REMARK   70  A    between atoms: _170  and  _171
REMARK   71  A    between atoms: _170  and  _173
REMARK   72  A    between atoms: _173  and  _174
REMARK   73  A    between atoms: _174  and  _175
REMARK   74  A    between atoms: _177  and  _179
REMARK   75  A    between atoms: _179  and  _180
REMARK   76  A    between atoms: _179  and  _182
REMARK   77  A    between atoms: _185  and  _187
REMARK   78  A    between atoms: _187  and  _188
REMARK   79  A    between atoms: _187  and  _190
REMARK   80  A    between atoms: _190  and  _191
REMARK   81  A    between atoms: _191  and  _192
REMARK   82  A    between atoms: _195  and  _197
REMARK   83  A    between atoms: _197  and  _198
REMARK   84  A    between atoms: _197  and  _200
REMARK   85  A    between atoms: _200  and  _201
REMARK   86  A    between atoms: _207  and  _208
REMARK   87  A    between atoms: _213  and  _215
REMARK   88  A    between atoms: _215  and  _216
REMARK   89  A    between atoms: _215  and  _218
REMARK   90  A    between atoms: _220  and  _222
REMARK   91  A    between atoms: _222  and  _223
REMARK   92  A    between atoms: _222  and  _225
REMARK   93  A    between atoms: _225  and  _226
REMARK   94  A    between atoms: _229  and  _231
REMARK   95  A    between atoms: _231  and  _232
REMARK   96  A    between atoms: _231  and  _234
REMARK   97  A    between atoms: _234  and  _235
REMARK   98  A    between atoms: _235  and  _236
REMARK   99  A    between atoms: _239  and  _241
REMARK  100  A    between atoms: _241  and  _242
REMARK  101  A    between atoms: _241  and  _244
REMARK  102  A    between atoms: _244  and  _245
REMARK  103  A    between atoms: _245  and  _246
REMARK  104  A    between atoms: _248  and  _250
REMARK  105  A    between atoms: _250  and  _251
REMARK  106  A    between atoms: _250  and  _253
REMARK  107  A    between atoms: _253  and  _254
REMARK  108  A    between atoms: _257  and  _259
REMARK  109  A    between atoms: _259  and  _260
REMARK  110  A    between atoms: _263  and  _265
REMARK  111  A    between atoms: _265  and  _266
REMARK  112  A    between atoms: _265  and  _268
REMARK  113  A    between atoms: _268  and  _269
REMARK  114  A    between atoms: _272  and  _274
REMARK  115  A    between atoms: _274  and  _275
REMARK  116  A    between atoms: _274  and  _277
REMARK  117  A    between atoms: _280  and  _282
REMARK  118  A    between atoms: _282  and  _283
REMARK  119  A    between atoms: _282  and  _285
REMARK  120  A    between atoms: _285  and  _286
REMARK  121  A    between atoms: _291  and  _293
REMARK  122  A    between atoms: _293  and  _294
REMARK  123  A    between atoms: _293  and  _296
REMARK  124  A    between atoms: _296  and  _297
REMARK  125  A    between atoms: _301  and  _302
REMARK  126  A    between atoms: _307  and  _309
REMARK  127  A    between atoms: _309  and  _310
REMARK  128  A    between atoms: _313  and  _315
REMARK  129  A    between atoms: _315  and  _316
REMARK  130  A    between atoms: _319  and  _321
REMARK  131  A    between atoms: _321  and  _322
REMARK  132  A    between atoms: _321  and  _324
REMARK  133  A    between atoms: _324  and  _325
REMARK  134  A    between atoms: _328  and  _330
REMARK  135  A    between atoms: _330  and  _331
REMARK  136  A    between atoms: _330  and  _333
REMARK  137  A    between atoms: _333  and  _334
REMARK  138  A    between atoms: _334  and  _335
REMARK  139  A    between atoms: _335  and  _336
REMARK  140  A    between atoms: _345  and  _347
REMARK  141  A    between atoms: _347  and  _348
REMARK  142  A    between atoms: _347  and  _350
REMARK  143  A    between atoms: _350  and  _351
REMARK  144  A    between atoms: _356  and  _358
REMARK  145  A    between atoms: _358  and  _359
REMARK  146  A    between atoms: _358  and  _361
REMARK  147  A    between atoms: _364  and  _366
REMARK  148  A    between atoms: _366  and  _367
REMARK  149  A    between atoms: _366  and  _369
REMARK  150  A    between atoms: _369  and  _370
REMARK  151  A    between atoms: _373  and  _375
REMARK  152  A    between atoms: _375  and  _376
REMARK  153  A    between atoms: _379  and  _381
REMARK  154  A    between atoms: _381  and  _382
REMARK  155  A    between atoms: _381  and  _384
REMARK  156  A    between atoms: _387  and  _389
REMARK  157  A    between atoms: _389  and  _390
REMARK  158  A    between atoms: _389  and  _392
REMARK  159  A    between atoms: _392  and  _393
REMARK  160  A    between atoms: _393  and  _394
REMARK  161  A    between atoms: _397  and  _399
REMARK  162  A    between atoms: _399  and  _400
REMARK  163  A    between atoms: _399  and  _402
REMARK  164  A    between atoms: _402  and  _403
REMARK  165  A    between atoms: _408  and  _410
REMARK  166  A    between atoms: _410  and  _411
REMARK  167  A    between atoms: _410  and  _413
REMARK  168  A    between atoms: _413  and  _414
REMARK  169  A    between atoms: _416  and  _418
REMARK  170  A    between atoms: _418  and  _419
REMARK  171  A    between atoms: _418  and  _421
REMARK  172  A    between atoms: _421  and  _422
REMARK  173  A    between atoms: _422  and  _423
REMARK  174  A    between atoms: _423  and  _424
REMARK  175  A    between atoms: _424  and  _425
REMARK  176  A    between atoms: _429  and  _431
REMARK  177  A    between atoms: _431  and  _432
REMARK  178  A    between atoms: _431  and  _434
REMARK  179  A    between atoms: _434  and  _435
REMARK  180  A    between atoms: _440  and  _442
REMARK  181  A    between atoms: _442  and  _443
REMARK  182  A    between atoms: _442  and  _445
REMARK  183  A    between atoms: _448  and  _450
REMARK  184  A    between atoms: _450  and  _451
REMARK  185  A    between atoms: _450  and  _453
REMARK  186  A    between atoms: _453  and  _454
REMARK  187  A    between atoms: _464  and  _466
REMARK  188  A    between atoms: _466  and  _467
REMARK  189  A    between atoms: _469  and  _471
REMARK  190  A    between atoms: _471  and  _472
REMARK  191  A    between atoms: _471  and  _474
REMARK  192  A    between atoms: _474  and  _475
REMARK  193  A    between atoms: _480  and  _481
REMARK  194  A    between atoms: _483  and  _485
REMARK  195  A    between atoms: _485  and  _486
REMARK  196  A    between atoms: _485  and  _488
REMARK  197  A    between atoms: _488  and  _489
REMARK  198  A    between atoms: _494  and  _496
REMARK  199  A    between atoms: _496  and  _497
REMARK  200  A    between atoms: _496  and  _499
REMARK  201  A    between atoms: _501  and  _503
REMARK  202  A    between atoms: _503  and  _504
REMARK  203  A    between atoms: _503  and  _506
REMARK  204  A    between atoms: _506  and  _507
REMARK  205  A    between atoms: _513  and  _515
REMARK  206  A    between atoms: _515  and  _516
REMARK  207  A    between atoms: _515  and  _518
REMARK  208  A    between atoms: _518  and  _519
REMARK  209  A    between atoms: _521  and  _523
REMARK  210  A    between atoms: _523  and  _524
REMARK  211  A    between atoms: _523  and  _526
REMARK  212  A    between atoms: _526  and  _527
REMARK  213  A    between atoms: _537  and  _539
REMARK  214  A    between atoms: _539  and  _540
REMARK  215  A    between atoms: _542  and  _544
REMARK  216  A    between atoms: _544  and  _545
REMARK  217  A    between atoms: _544  and  _547
REMARK  218  A    between atoms: _547  and  _548
REMARK  219  A    between atoms: _548  and  _549
REMARK                            x       y       z     vdW  Elec       q    Type
REMARK                         _______ _______ _______ _____ _____    ______ ____
ROOT
ATOM      1  O   HOH     1     -51.000  17.900 -25.611  0.00  0.00    +0.000 OA
ENDROOT
TORSDOF 0
REMARK  Name = ../refined-set-2016/3jrx/3jrx_pocket.pdb
REMARK  219 active torsions:
REMARK  status: ('A' for Active; 'I' for Inactive)
REMARK    1  A    between atoms: _1  and  _3
REMARK    2  A    between atoms: _3  and  _4
REMARK    3  A    between atoms: _6  and  _8
REMARK    4  A    between atoms: _8  and  _9
REMARK    5  A    between atoms: _8  and  _11
REMARK    6  A    between atoms: _11  and  _12
REMARK    7  A    between atoms: _15  and  _17
REMARK    8  A    between atoms: _17  and  _18
REMARK    9  A    between atoms: _21  and  _23
REMARK   10  A    between atoms: _23  and  _24
REMARK   11  A    between atoms: _27  and  _29
REMARK   12  A    between atoms: _29  and  _30
REMARK   13  A    between atoms: _29  and  _32
REMARK   14  A    between atoms: _35  and  _37
REMARK   15  A    between atoms: _37  and  _38
REMARK   16  A    between atoms: _37  and  _40
REMARK   17  A    between atoms: _40  and  _41
REMARK   18  A    between atoms: _41  and  _42
REMARK   19  A    between atoms: _42  and  _43
REMARK   20  A    between atoms: _43  and  _44
REMARK   21  A    between atoms: _48  and  _50
REMARK   22  A    between atoms: _50  and  _51
REMARK   23  A    between atoms: _50  and  _53
REMARK   24  A    between atoms: _55  and  _57
REMARK   25  A    between atoms: _57  and  _58
REMARK   26  A    between atoms: _57  and  _60
REMARK   27  A    between atoms: _60  and  _61
REMARK   28  A    between atoms: _61  and  _62
REMARK   29  A    between atoms: _64  and  _66
REMARK   30  A    between atoms: _66  and  _67
REMARK   31  A    between atoms: _66  and  _69
REMARK   32  A    between atoms: _69  and  _70
REMARK   33  A    between atoms: _70  and  _71
REMARK   34  A    between atoms: _71  and  _72
REMARK   35  A    between atoms: _81  and  _83
REMARK   36  A    between atoms: _83  and  _84
REMARK   37  A    between atoms: _83  and  _86
REMARK   38  A    between atoms: _86  and  _87
REMARK   39  A    between atoms: _89  and  _91
REMARK   40  A    between atoms: _91  and  _92
REMARK   41  A    between atoms: _91  and  _94
REMARK   42  A    between atoms: _94  and  _95
REMARK   43  A    between atoms: _98  and  _100
REMARK   44  A    between atoms: _100  and  _101
REMARK   45  A    between atoms: _100  and  _103
REMARK   46  A    between atoms: _103  and  _104
REMARK   47  A    between atoms: _104  and  _105
REMARK   48  A    between atoms: _105  and  _106
REMARK   49  A    between atoms: _115  and  _117
REMARK   50  A    between atoms: _117  and  _118
REMARK   51  A    between atoms: _117  and  _120
REMARK   52  A    between atoms: _120  and  _121
REMARK   53  A    between atoms: _121  and  _122
REMARK   54  A    between atoms: _122  and  _123
REMARK   55  A    between atoms: _132  and  _134
REMARK   56  A    between atoms: _134  and  _135
REMARK   57  A    between atoms: _134  and  _137
REMARK   58  A    between atoms: _137  and  _138
REMARK   59  A    between atoms: _148  and  _150
REMARK   60  A    between atoms: _150  and  _151
REMARK   61  A    between atoms: _150  and  _153
REMARK   62  A    between atoms: _153  and  _154
REMARK   63  A    between atoms: _154  and  _155
REMARK   64  A    between atoms: _158  and  _160
REMARK   65  A    between atoms: _160  and  _161
REMARK   66  A    between atoms: _160  and  _163
REMARK   67  A    between atoms: _163  and  _164
REMARK   68  A    between atoms: _164  and  _165
REMARK   69  A    between atoms: _168  and  _170
REMARK   70  A    between atoms: _170  and  _171
REMARK   71  A    between atoms: _170  and  _173
REMARK   72  A    between atoms: _173  and  _174
REMARK   73  A    between atoms: _174  and  _175
REMARK   74  A    between atoms: _177  and  _179
REMARK   75  A    between atoms: _179  and  _180
REMARK   76  A    between atoms: _179  and  _182
REMARK   77  A    between atoms: _185  and  _187
REMARK   78  A    between atoms: _187  and  _188
REMARK   79  A    between atoms: _187  and  _190
REMARK   80  A    between atoms: _190  and  _191
REMARK   81  A    between atoms: _191  and  _192
REMARK   82  A    between atoms: _195  and  _197
REMARK   83  A    between atoms: _197  and  _198
REMARK   84  A    between atoms: _197  and  _200
REMARK   85  A    between atoms: _200  and  _201
REMARK   86  A    between atoms: _207  and  _208
REMARK   87  A    between atoms: _213  and  _215
REMARK   88  A    between atoms: _215  and  _216
REMARK   89  A    between atoms: _215  and  _218
REMARK   90  A    between atoms: _220  and  _222
REMARK   91  A    between atoms: _222  and  _223
REMARK   92  A    between atoms: _222  and  _225
REMARK   93  A    between atoms: _225  and  _226
REMARK   94  A    between atoms: _229  and  _231
REMARK   95  A    between atoms: _231  and  _232
REMARK   96  A    between atoms: _231  and  _234
REMARK   97  A    between atoms: _234  and  _235
REMARK   98  A    between atoms: _235  and  _236
REMARK   99  A    between atoms: _239  and  _241
REMARK  100  A    between atoms: _241  and  _242
REMARK  101  A    between atoms: _241  and  _244
REMARK  102  A    between atoms: _244  and  _245
REMARK  103  A    between atoms: _245  and  _246
REMARK  104  A    between atoms: _248  and  _250
REMARK  105  A    between atoms: _250  and  _251
REMARK  106  A    between atoms: _250  and  _253
REMARK  107  A    between atoms: _253  and  _254
REMARK  108  A    between atoms: _257  and  _259
REMARK  109  A    between atoms: _259  and  _260
REMARK  110  A    between atoms: _263  and  _265
REMARK  111  A    between atoms: _265  and  _266
REMARK  112  A    between atoms: _265  and  _268
REMARK  113  A    between atoms: _268  and  _269
REMARK  114  A    between atoms: _272  and  _274
REMARK  115  A    between atoms: _274  and  _275
REMARK  116  A    between atoms: _274  and  _277
REMARK  117  A    between atoms: _280  and  _282
REMARK  118  A    between atoms: _282  and  _283
REMARK  119  A    between atoms: _282  and  _285
REMARK  120  A    between atoms: _285  and  _286
REMARK  121  A    between atoms: _291  and  _293
REMARK  122  A    between atoms: _293  and  _294
REMARK  123  A    between atoms: _293  and  _296
REMARK  124  A    between atoms: _296  and  _297
REMARK  125  A    between atoms: _301  and  _302
REMARK  126  A    between atoms: _307  and  _309
REMARK  127  A    between atoms: _309  and  _310
REMARK  128  A    between atoms: _313  and  _315
REMARK  129  A    between atoms: _315  and  _316
REMARK  130  A    between atoms: _319  and  _321
REMARK  131  A    between atoms: _321  and  _322
REMARK  132  A    between atoms: _321  and  _324
REMARK  133  A    between atoms: _324  and  _325
REMARK  134  A    between atoms: _328  and  _330
REMARK  135  A    between atoms: _330  and  _331
REMARK  136  A    between atoms: _330  and  _333
REMARK  137  A    between atoms: _333  and  _334
REMARK  138  A    between atoms: _334  and  _335
REMARK  139  A    between atoms: _335  and  _336
REMARK  140  A    between atoms: _345  and  _347
REMARK  141  A    between atoms: _347  and  _348
REMARK  142  A    between atoms: _347  and  _350
REMARK  143  A    between atoms: _350  and  _351
REMARK  144  A    between atoms: _356  and  _358
REMARK  145  A    between atoms: _358  and  _359
REMARK  146  A    between atoms: _358  and  _361
REMARK  147  A    between atoms: _364  and  _366
REMARK  148  A    between atoms: _366  and  _367
REMARK  149  A    between atoms: _366  and  _369
REMARK  150  A    between atoms: _369  and  _370
REMARK  151  A    between atoms: _373  and  _375
REMARK  152  A    between atoms: _375  and  _376
REMARK  153  A    between atoms: _379  and  _381
REMARK  154  A    between atoms: _381  and  _382
REMARK  155  A    between atoms: _381  and  _384
REMARK  156  A    between atoms: _387  and  _389
REMARK  157  A    between atoms: _389  and  _390
REMARK  158  A    between atoms: _389  and  _392
REMARK  159  A    between atoms: _392  and  _393
REMARK  160  A    between atoms: _393  and  _394
REMARK  161  A    between atoms: _397  and  _399
REMARK  162  A    between atoms: _399  and  _400
REMARK  163  A    between atoms: _399  and  _402
REMARK  164  A    between atoms: _402  and  _403
REMARK  165  A    between atoms: _408  and  _410
REMARK  166  A    between atoms: _410  and  _411
REMARK  167  A    between atoms: _410  and  _413
REMARK  168  A    between atoms: _413  and  _414
REMARK  169  A    between atoms: _416  and  _418
REMARK  170  A    between atoms: _418  and  _419
REMARK  171  A    between atoms: _418  and  _421
REMARK  172  A    between atoms: _421  and  _422
REMARK  173  A    between atoms: _422  and  _423
REMARK  174  A    between atoms: _423  and  _424
REMARK  175  A    between atoms: _424  and  _425
REMARK  176  A    between atoms: _429  and  _431
REMARK  177  A    between atoms: _431  and  _432
REMARK  178  A    between atoms: _431  and  _434
REMARK  179  A    between atoms: _434  and  _435
REMARK  180  A    between atoms: _440  and  _442
REMARK  181  A    between atoms: _442  and  _443
REMARK  182  A    between atoms: _442  and  _445
REMARK  183  A    between atoms: _448  and  _450
REMARK  184  A    between atoms: _450  and  _451
REMARK  185  A    between atoms: _450  and  _453
REMARK  186  A    between atoms: _453  and  _454
REMARK  187  A    between atoms: _464  and  _466
REMARK  188  A    between atoms: _466  and  _467
REMARK  189  A    between atoms: _469  and  _471
REMARK  190  A    between atoms: _471  and  _472
REMARK  191  A    between atoms: _471  and  _474
REMARK  192  A    between atoms: _474  and  _475
REMARK  193  A    between atoms: _480  and  _481
REMARK  194  A    between atoms: _483  and  _485
REMARK  195  A    between atoms: _485  and  _486
REMARK  196  A    between atoms: _485  and  _488
REMARK  197  A    between atoms: _488  and  _489
REMARK  198  A    between atoms: _494  and  _496
REMARK  199  A    between atoms: _496  and  _497
REMARK  200  A    between atoms: _496  and  _499
REMARK  201  A    between atoms: _501  and  _503
REMARK  202  A    between atoms: _503  and  _504
REMARK  203  A    between atoms: _503  and  _506
REMARK  204  A    between atoms: _506  and  _507
REMARK  205  A    between atoms: _513  and  _515
REMARK  206  A    between atoms: _515  and  _516
REMARK  207  A    between atoms: _515  and  _518
REMARK  208  A    between atoms: _518  and  _519
REMARK  209  A    between atoms: _521  and  _523
REMARK  210  A    between atoms: _523  and  _524
REMARK  211  A    between atoms: _523  and  _526
REMARK  212  A    between atoms: _526  and  _527
REMARK  213  A    between atoms: _537  and  _539
REMARK  214  A    between atoms: _539  and  _540
REMARK  215  A    between atoms: _542  and  _544
REMARK  216  A    between atoms: _544  and  _545
REMARK  217  A    between atoms: _544  and  _547
REMARK  218  A    between atoms: _547  and  _548
REMARK  219  A    between atoms: _548  and  _549
REMARK                            x       y       z     vdW  Elec       q    Type
REMARK                         _______ _______ _______ _____ _____    ______ ____
ROOT
ATOM      1  O   HOH     1     -43.527  16.624 -13.571  0.00  0.00    +0.000 OA
ENDROOT
TORSDOF 0
REMARK  Name = ../refined-set-2016/3jrx/3jrx_pocket.pdb
REMARK  219 active torsions:
REMARK  status: ('A' for Active; 'I' for Inactive)
REMARK    1  A    between atoms: _1  and  _3
REMARK    2  A    between atoms: _3  and  _4
REMARK    3  A    between atoms: _6  and  _8
REMARK    4  A    between atoms: _8  and  _9
REMARK    5  A    between atoms: _8  and  _11
REMARK    6  A    between atoms: _11  and  _12
REMARK    7  A    between atoms: _15  and  _17
REMARK    8  A    between atoms: _17  and  _18
REMARK    9  A    between atoms: _21  and  _23
REMARK   10  A    between atoms: _23  and  _24
REMARK   11  A    between atoms: _27  and  _29
REMARK   12  A    between atoms: _29  and  _30
REMARK   13  A    between atoms: _29  and  _32
REMARK   14  A    between atoms: _35  and  _37
REMARK   15  A    between atoms: _37  and  _38
REMARK   16  A    between atoms: _37  and  _40
REMARK   17  A    between atoms: _40  and  _41
REMARK   18  A    between atoms: _41  and  _42
REMARK   19  A    between atoms: _42  and  _43
REMARK   20  A    between atoms: _43  and  _44
REMARK   21  A    between atoms: _48  and  _50
REMARK   22  A    between atoms: _50  and  _51
REMARK   23  A    between atoms: _50  and  _53
REMARK   24  A    between atoms: _55  and  _57
REMARK   25  A    between atoms: _57  and  _58
REMARK   26  A    between atoms: _57  and  _60
REMARK   27  A    between atoms: _60  and  _61
REMARK   28  A    between atoms: _61  and  _62
REMARK   29  A    between atoms: _64  and  _66
REMARK   30  A    between atoms: _66  and  _67
REMARK   31  A    between atoms: _66  and  _69
REMARK   32  A    between atoms: _69  and  _70
REMARK   33  A    between atoms: _70  and  _71
REMARK   34  A    between atoms: _71  and  _72
REMARK   35  A    between atoms: _81  and  _83
REMARK   36  A    between atoms: _83  and  _84
REMARK   37  A    between atoms: _83  and  _86
REMARK   38  A    between atoms: _86  and  _87
REMARK   39  A    between atoms: _89  and  _91
REMARK   40  A    between atoms: _91  and  _92
REMARK   41  A    between atoms: _91  and  _94
REMARK   42  A    between atoms: _94  and  _95
REMARK   43  A    between atoms: _98  and  _100
REMARK   44  A    between atoms: _100  and  _101
REMARK   45  A    between atoms: _100  and  _103
REMARK   46  A    between atoms: _103  and  _104
REMARK   47  A    between atoms: _104  and  _105
REMARK   48  A    between atoms: _105  and  _106
REMARK   49  A    between atoms: _115  and  _117
REMARK   50  A    between atoms: _117  and  _118
REMARK   51  A    between atoms: _117  and  _120
REMARK   52  A    between atoms: _120  and  _121
REMARK   53  A    between atoms: _121  and  _122
REMARK   54  A    between atoms: _122  and  _123
REMARK   55  A    between atoms: _132  and  _134
REMARK   56  A    between atoms: _134  and  _135
REMARK   57  A    between atoms: _134  and  _137
REMARK   58  A    between atoms: _137  and  _138
REMARK   59  A    between atoms: _148  and  _150
REMARK   60  A    between atoms: _150  and  _151
REMARK   61  A    between atoms: _150  and  _153
REMARK   62  A    between atoms: _153  and  _154
REMARK   63  A    between atoms: _154  and  _155
REMARK   64  A    between atoms: _158  and  _160
REMARK   65  A    between atoms: _160  and  _161
REMARK   66  A    between atoms: _160  and  _163
REMARK   67  A    between atoms: _163  and  _164
REMARK   68  A    between atoms: _164  and  _165
REMARK   69  A    between atoms: _168  and  _170
REMARK   70  A    between atoms: _170  and  _171
REMARK   71  A    between atoms: _170  and  _173
REMARK   72  A    between atoms: _173  and  _174
REMARK   73  A    between atoms: _174  and  _175
REMARK   74  A    between atoms: _177  and  _179
REMARK   75  A    between atoms: _179  and  _180
REMARK   76  A    between atoms: _179  and  _182
REMARK   77  A    between atoms: _185  and  _187
REMARK   78  A    between atoms: _187  and  _188
REMARK   79  A    between atoms: _187  and  _190
REMARK   80  A    between atoms: _190  and  _191
REMARK   81  A    between atoms: _191  and  _192
REMARK   82  A    between atoms: _195  and  _197
REMARK   83  A    between atoms: _197  and  _198
REMARK   84  A    between atoms: _197  and  _200
REMARK   85  A    between atoms: _200  and  _201
REMARK   86  A    between atoms: _207  and  _208
REMARK   87  A    between atoms: _213  and  _215
REMARK   88  A    between atoms: _215  and  _216
REMARK   89  A    between atoms: _215  and  _218
REMARK   90  A    between atoms: _220  and  _222
REMARK   91  A    between atoms: _222  and  _223
REMARK   92  A    between atoms: _222  and  _225
REMARK   93  A    between atoms: _225  and  _226
REMARK   94  A    between atoms: _229  and  _231
REMARK   95  A    between atoms: _231  and  _232
REMARK   96  A    between atoms: _231  and  _234
REMARK   97  A    between atoms: _234  and  _235
REMARK   98  A    between atoms: _235  and  _236
REMARK   99  A    between atoms: _239  and  _241
REMARK  100  A    between atoms: _241  and  _242
REMARK  101  A    between atoms: _241  and  _244
REMARK  102  A    between atoms: _244  and  _245
REMARK  103  A    between atoms: _245  and  _246
REMARK  104  A    between atoms: _248  and  _250
REMARK  105  A    between atoms: _250  and  _251
REMARK  106  A    between atoms: _250  and  _253
REMARK  107  A    between atoms: _253  and  _254
REMARK  108  A    between atoms: _257  and  _259
REMARK  109  A    between atoms: _259  and  _260
REMARK  110  A    between atoms: _263  and  _265
REMARK  111  A    between atoms: _265  and  _266
REMARK  112  A    between atoms: _265  and  _268
REMARK  113  A    between atoms: _268  and  _269
REMARK  114  A    between atoms: _272  and  _274
REMARK  115  A    between atoms: _274  and  _275
REMARK  116  A    between atoms: _274  and  _277
REMARK  117  A    between atoms: _280  and  _282
REMARK  118  A    between atoms: _282  and  _283
REMARK  119  A    between atoms: _282  and  _285
REMARK  120  A    between atoms: _285  and  _286
REMARK  121  A    between atoms: _291  and  _293
REMARK  122  A    between atoms: _293  and  _294
REMARK  123  A    between atoms: _293  and  _296
REMARK  124  A    between atoms: _296  and  _297
REMARK  125  A    between atoms: _301  and  _302
REMARK  126  A    between atoms: _307  and  _309
REMARK  127  A    between atoms: _309  and  _310
REMARK  128  A    between atoms: _313  and  _315
REMARK  129  A    between atoms: _315  and  _316
REMARK  130  A    between atoms: _319  and  _321
REMARK  131  A    between atoms: _321  and  _322
REMARK  132  A    between atoms: _321  and  _324
REMARK  133  A    between atoms: _324  and  _325
REMARK  134  A    between atoms: _328  and  _330
REMARK  135  A    between atoms: _330  and  _331
REMARK  136  A    between atoms: _330  and  _333
REMARK  137  A    between atoms: _333  and  _334
REMARK  138  A    between atoms: _334  and  _335
REMARK  139  A    between atoms: _335  and  _336
REMARK  140  A    between atoms: _345  and  _347
REMARK  141  A    between atoms: _347  and  _348
REMARK  142  A    between atoms: _347  and  _350
REMARK  143  A    between atoms: _350  and  _351
REMARK  144  A    between atoms: _356  and  _358
REMARK  145  A    between atoms: _358  and  _359
REMARK  146  A    between atoms: _358  and  _361
REMARK  147  A    between atoms: _364  and  _366
REMARK  148  A    between atoms: _366  and  _367
REMARK  149  A    between atoms: _366  and  _369
REMARK  150  A    between atoms: _369  and  _370
REMARK  151  A    between atoms: _373  and  _375
REMARK  152  A    between atoms: _375  and  _376
REMARK  153  A    between atoms: _379  and  _381
REMARK  154  A    between atoms: _381  and  _382
REMARK  155  A    between atoms: _381  and  _384
REMARK  156  A    between atoms: _387  and  _389
REMARK  157  A    between atoms: _389  and  _390
REMARK  158  A    between atoms: _389  and  _392
REMARK  159  A    between atoms: _392  and  _393
REMARK  160  A    between atoms: _393  and  _394
REMARK  161  A    between atoms: _397  and  _399
REMARK  162  A    between atoms: _399  and  _400
REMARK  163  A    between atoms: _399  and  _402
REMARK  164  A    between atoms: _402  and  _403
REMARK  165  A    between atoms: _408  and  _410
REMARK  166  A    between atoms: _410  and  _411
REMARK  167  A    between atoms: _410  and  _413
REMARK  168  A    between atoms: _413  and  _414
REMARK  169  A    between atoms: _416  and  _418
REMARK  170  A    between atoms: _418  and  _419
REMARK  171  A    between atoms: _418  and  _421
REMARK  172  A    between atoms: _421  and  _422
REMARK  173  A    between atoms: _422  and  _423
REMARK  174  A    between atoms: _423  and  _424
REMARK  175  A    between atoms: _424  and  _425
REMARK  176  A    between atoms: _429  and  _431
REMARK  177  A    between atoms: _431  and  _432
REMARK  178  A    between atoms: _431  and  _434
REMARK  179  A    between atoms: _434  and  _435
REMARK  180  A    between atoms: _440  and  _442
REMARK  181  A    between atoms: _442  and  _443
REMARK  182  A    between atoms: _442  and  _445
REMARK  183  A    between atoms: _448  and  _450
REMARK  184  A    between atoms: _450  and  _451
REMARK  185  A    between atoms: _450  and  _453
REMARK  186  A    between atoms: _453  and  _454
REMARK  187  A    between atoms: _464  and  _466
REMARK  188  A    between atoms: _466  and  _467
REMARK  189  A    between atoms: _469  and  _471
REMARK  190  A    between atoms: _471  and  _472
REMARK  191  A    between atoms: _471  and  _474
REMARK  192  A    between atoms: _474  and  _475
REMARK  193  A    between atoms: _480  and  _481
REMARK  194  A    between atoms: _483  and  _485
REMARK  195  A    between atoms: _485  and  _486
REMARK  196  A    between atoms: _485  and  _488
REMARK  197  A    between atoms: _488  and  _489
REMARK  198  A    between atoms: _494  and  _496
REMARK  199  A    between atoms: _496  and  _497
REMARK  200  A    between atoms: _496  and  _499
REMARK  201  A    between atoms: _501  and  _503
REMARK  202  A    between atoms: _503  and  _504
REMARK  203  A    between atoms: _503  and  _506
REMARK  204  A    between atoms: _506  and  _507
REMARK  205  A    between atoms: _513  and  _515
REMARK  206  A    between atoms: _515  and  _516
REMARK  207  A    between atoms: _515  and  _518
REMARK  208  A    between atoms: _518  and  _519
REMARK  209  A    between atoms: _521  and  _523
REMARK  210  A    between atoms: _523  and  _524
REMARK  211  A    between atoms: _523  and  _526
REMARK  212  A    between atoms: _526  and  _527
REMARK  213  A    between atoms: _537  and  _539
REMARK  214  A    between atoms: _539  and  _540
REMARK  215  A    between atoms: _542  and  _544
REMARK  216  A    between atoms: _544  and  _545
REMARK  217  A    between atoms: _544  and  _547
REMARK  218  A    between atoms: _547  and  _548
REMARK  219  A    between atoms: _548  and  _549
REMARK                            x       y       z     vdW  Elec       q    Type
REMARK                         _______ _______ _______ _____ _____    ______ ____
ROOT
ATOM      1  O   HOH     1     -35.717  24.333 -24.889  0.00  0.00    +0.000 OA
ENDROOT
TORSDOF 0
REMARK  Name = ../refined-set-2016/3jrx/3jrx_pocket.pdb
REMARK  219 active torsions:
REMARK  status: ('A' for Active; 'I' for Inactive)
REMARK    1  A    between atoms: _1  and  _3
REMARK    2  A    between atoms: _3  and  _4
REMARK    3  A    between atoms: _6  and  _8
REMARK    4  A    between atoms: _8  and  _9
REMARK    5  A    between atoms: _8  and  _11
REMARK    6  A    between atoms: _11  and  _12
REMARK    7  A    between atoms: _15  and  _17
REMARK    8  A    between atoms: _17  and  _18
REMARK    9  A    between atoms: _21  and  _23
REMARK   10  A    between atoms: _23  and  _24
REMARK   11  A    between atoms: _27  and  _29
REMARK   12  A    between atoms: _29  and  _30
REMARK   13  A    between atoms: _29  and  _32
REMARK   14  A    between atoms: _35  and  _37
REMARK   15  A    between atoms: _37  and  _38
REMARK   16  A    between atoms: _37  and  _40
REMARK   17  A    between atoms: _40  and  _41
REMARK   18  A    between atoms: _41  and  _42
REMARK   19  A    between atoms: _42  and  _43
REMARK   20  A    between atoms: _43  and  _44
REMARK   21  A    between atoms: _48  and  _50
REMARK   22  A    between atoms: _50  and  _51
REMARK   23  A    between atoms: _50  and  _53
REMARK   24  A    between atoms: _55  and  _57
REMARK   25  A    between atoms: _57  and  _58
REMARK   26  A    between atoms: _57  and  _60
REMARK   27  A    between atoms: _60  and  _61
REMARK   28  A    between atoms: _61  and  _62
REMARK   29  A    between atoms: _64  and  _66
REMARK   30  A    between atoms: _66  and  _67
REMARK   31  A    between atoms: _66  and  _69
REMARK   32  A    between atoms: _69  and  _70
REMARK   33  A    between atoms: _70  and  _71
REMARK   34  A    between atoms: _71  and  _72
REMARK   35  A    between atoms: _81  and  _83
REMARK   36  A    between atoms: _83  and  _84
REMARK   37  A    between atoms: _83  and  _86
REMARK   38  A    between atoms: _86  and  _87
REMARK   39  A    between atoms: _89  and  _91
REMARK   40  A    between atoms: _91  and  _92
REMARK   41  A    between atoms: _91  and  _94
REMARK   42  A    between atoms: _94  and  _95
REMARK   43  A    between atoms: _98  and  _100
REMARK   44  A    between atoms: _100  and  _101
REMARK   45  A    between atoms: _100  and  _103
REMARK   46  A    between atoms: _103  and  _104
REMARK   47  A    between atoms: _104  and  _105
REMARK   48  A    between atoms: _105  and  _106
REMARK   49  A    between atoms: _115  and  _117
REMARK   50  A    between atoms: _117  and  _118
REMARK   51  A    between atoms: _117  and  _120
REMARK   52  A    between atoms: _120  and  _121
REMARK   53  A    between atoms: _121  and  _122
REMARK   54  A    between atoms: _122  and  _123
REMARK   55  A    between atoms: _132  and  _134
REMARK   56  A    between atoms: _134  and  _135
REMARK   57  A    between atoms: _134  and  _137
REMARK   58  A    between atoms: _137  and  _138
REMARK   59  A    between atoms: _148  and  _150
REMARK   60  A    between atoms: _150  and  _151
REMARK   61  A    between atoms: _150  and  _153
REMARK   62  A    between atoms: _153  and  _154
REMARK   63  A    between atoms: _154  and  _155
REMARK   64  A    between atoms: _158  and  _160
REMARK   65  A    between atoms: _160  and  _161
REMARK   66  A    between atoms: _160  and  _163
REMARK   67  A    between atoms: _163  and  _164
REMARK   68  A    between atoms: _164  and  _165
REMARK   69  A    between atoms: _168  and  _170
REMARK   70  A    between atoms: _170  and  _171
REMARK   71  A    between atoms: _170  and  _173
REMARK   72  A    between atoms: _173  and  _174
REMARK   73  A    between atoms: _174  and  _175
REMARK   74  A    between atoms: _177  and  _179
REMARK   75  A    between atoms: _179  and  _180
REMARK   76  A    between atoms: _179  and  _182
REMARK   77  A    between atoms: _185  and  _187
REMARK   78  A    between atoms: _187  and  _188
REMARK   79  A    between atoms: _187  and  _190
REMARK   80  A    between atoms: _190  and  _191
REMARK   81  A    between atoms: _191  and  _192
REMARK   82  A    between atoms: _195  and  _197
REMARK   83  A    between atoms: _197  and  _198
REMARK   84  A    between atoms: _197  and  _200
REMARK   85  A    between atoms: _200  and  _201
REMARK   86  A    between atoms: _207  and  _208
REMARK   87  A    between atoms: _213  and  _215
REMARK   88  A    between atoms: _215  and  _216
REMARK   89  A    between atoms: _215  and  _218
REMARK   90  A    between atoms: _220  and  _222
REMARK   91  A    between atoms: _222  and  _223
REMARK   92  A    between atoms: _222  and  _225
REMARK   93  A    between atoms: _225  and  _226
REMARK   94  A    between atoms: _229  and  _231
REMARK   95  A    between atoms: _231  and  _232
REMARK   96  A    between atoms: _231  and  _234
REMARK   97  A    between atoms: _234  and  _235
REMARK   98  A    between atoms: _235  and  _236
REMARK   99  A    between atoms: _239  and  _241
REMARK  100  A    between atoms: _241  and  _242
REMARK  101  A    between atoms: _241  and  _244
REMARK  102  A    between atoms: _244  and  _245
REMARK  103  A    between atoms: _245  and  _246
REMARK  104  A    between atoms: _248  and  _250
REMARK  105  A    between atoms: _250  and  _251
REMARK  106  A    between atoms: _250  and  _253
REMARK  107  A    between atoms: _253  and  _254
REMARK  108  A    between atoms: _257  and  _259
REMARK  109  A    between atoms: _259  and  _260
REMARK  110  A    between atoms: _263  and  _265
REMARK  111  A    between atoms: _265  and  _266
REMARK  112  A    between atoms: _265  and  _268
REMARK  113  A    between atoms: _268  and  _269
REMARK  114  A    between atoms: _272  and  _274
REMARK  115  A    between atoms: _274  and  _275
REMARK  116  A    between atoms: _274  and  _277
REMARK  117  A    between atoms: _280  and  _282
REMARK  118  A    between atoms: _282  and  _283
REMARK  119  A    between atoms: _282  and  _285
REMARK  120  A    between atoms: _285  and  _286
REMARK  121  A    between atoms: _291  and  _293
REMARK  122  A    between atoms: _293  and  _294
REMARK  123  A    between atoms: _293  and  _296
REMARK  124  A    between atoms: _296  and  _297
REMARK  125  A    between atoms: _301  and  _302
REMARK  126  A    between atoms: _307  and  _309
REMARK  127  A    between atoms: _309  and  _310
REMARK  128  A    between atoms: _313  and  _315
REMARK  129  A    between atoms: _315  and  _316
REMARK  130  A    between atoms: _319  and  _321
REMARK  131  A    between atoms: _321  and  _322
REMARK  132  A    between atoms: _321  and  _324
REMARK  133  A    between atoms: _324  and  _325
REMARK  134  A    between atoms: _328  and  _330
REMARK  135  A    between atoms: _330  and  _331
REMARK  136  A    between atoms: _330  and  _333
REMARK  137  A    between atoms: _333  and  _334
REMARK  138  A    between atoms: _334  and  _335
REMARK  139  A    between atoms: _335  and  _336
REMARK  140  A    between atoms: _345  and  _347
REMARK  141  A    between atoms: _347  and  _348
REMARK  142  A    between atoms: _347  and  _350
REMARK  143  A    between atoms: _350  and  _351
REMARK  144  A    between atoms: _356  and  _358
REMARK  145  A    between atoms: _358  and  _359
REMARK  146  A    between atoms: _358  and  _361
REMARK  147  A    between atoms: _364  and  _366
REMARK  148  A    between atoms: _366  and  _367
REMARK  149  A    between atoms: _366  and  _369
REMARK  150  A    between atoms: _369  and  _370
REMARK  151  A    between atoms: _373  and  _375
REMARK  152  A    between atoms: _375  and  _376
REMARK  153  A    between atoms: _379  and  _381
REMARK  154  A    between atoms: _381  and  _382
REMARK  155  A    between atoms: _381  and  _384
REMARK  156  A    between atoms: _387  and  _389
REMARK  157  A    between atoms: _389  and  _390
REMARK  158  A    between atoms: _389  and  _392
REMARK  159  A    between atoms: _392  and  _393
REMARK  160  A    between atoms: _393  and  _394
REMARK  161  A    between atoms: _397  and  _399
REMARK  162  A    between atoms: _399  and  _400
REMARK  163  A    between atoms: _399  and  _402
REMARK  164  A    between atoms: _402  and  _403
REMARK  165  A    between atoms: _408  and  _410
REMARK  166  A    between atoms: _410  and  _411
REMARK  167  A    between atoms: _410  and  _413
REMARK  168  A    between atoms: _413  and  _414
REMARK  169  A    between atoms: _416  and  _418
REMARK  170  A    between atoms: _418  and  _419
REMARK  171  A    between atoms: _418  and  _421
REMARK  172  A    between atoms: _421  and  _422
REMARK  173  A    between atoms: _422  and  _423
REMARK  174  A    between atoms: _423  and  _424
REMARK  175  A    between atoms: _424  and  _425
REMARK  176  A    between atoms: _429  and  _431
REMARK  177  A    between atoms: _431  and  _432
REMARK  178  A    between atoms: _431  and  _434
REMARK  179  A    between atoms: _434  and  _435
REMARK  180  A    between atoms: _440  and  _442
REMARK  181  A    between atoms: _442  and  _443
REMARK  182  A    between atoms: _442  and  _445
REMARK  183  A    between atoms: _448  and  _450
REMARK  184  A    between atoms: _450  and  _451
REMARK  185  A    between atoms: _450  and  _453
REMARK  186  A    between atoms: _453  and  _454
REMARK  187  A    between atoms: _464  and  _466
REMARK  188  A    between atoms: _466  and  _467
REMARK  189  A    between atoms: _469  and  _471
REMARK  190  A    between atoms: _471  and  _472
REMARK  191  A    between atoms: _471  and  _474
REMARK  192  A    between atoms: _474  and  _475
REMARK  193  A    between atoms: _480  and  _481
REMARK  194  A    between atoms: _483  and  _485
REMARK  195  A    between atoms: _485  and  _486
REMARK  196  A    between atoms: _485  and  _488
REMARK  197  A    between atoms: _488  and  _489
REMARK  198  A    between atoms: _494  and  _496
REMARK  199  A    between atoms: _496  and  _497
REMARK  200  A    between atoms: _496  and  _499
REMARK  201  A    between atoms: _501  and  _503
REMARK  202  A    between atoms: _503  and  _504
REMARK  203  A    between atoms: _503  and  _506
REMARK  204  A    between atoms: _506  and  _507
REMARK  205  A    between atoms: _513  and  _515
REMARK  206  A    between atoms: _515  and  _516
REMARK  207  A    between atoms: _515  and  _518
REMARK  208  A    between atoms: _518  and  _519
REMARK  209  A    between atoms: _521  and  _523
REMARK  210  A    between atoms: _523  and  _524
REMARK  211  A    between atoms: _523  and  _526
REMARK  212  A    between atoms: _526  and  _527
REMARK  213  A    between atoms: _537  and  _539
REMARK  214  A    between atoms: _539  and  _540
REMARK  215  A    between atoms: _542  and  _544
REMARK  216  A    between atoms: _544  and  _545
REMARK  217  A    between atoms: _544  and  _547
REMARK  218  A    between atoms: _547  and  _548
REMARK  219  A    between atoms: _548  and  _549
REMARK                            x       y       z     vdW  Elec       q    Type
REMARK                         _______ _______ _______ _____ _____    ______ ____
ROOT
ATOM      1  O   HOH     1     -48.540  21.703 -24.857  0.00  0.00    +0.000 OA
ENDROOT
TORSDOF 0
REMARK  Name = ../refined-set-2016/3jrx/3jrx_pocket.pdb
REMARK  219 active torsions:
REMARK  status: ('A' for Active; 'I' for Inactive)
REMARK    1  A    between atoms: _1  and  _3
REMARK    2  A    between atoms: _3  and  _4
REMARK    3  A    between atoms: _6  and  _8
REMARK    4  A    between atoms: _8  and  _9
REMARK    5  A    between atoms: _8  and  _11
REMARK    6  A    between atoms: _11  and  _12
REMARK    7  A    between atoms: _15  and  _17
REMARK    8  A    between atoms: _17  and  _18
REMARK    9  A    between atoms: _21  and  _23
REMARK   10  A    between atoms: _23  and  _24
REMARK   11  A    between atoms: _27  and  _29
REMARK   12  A    between atoms: _29  and  _30
REMARK   13  A    between atoms: _29  and  _32
REMARK   14  A    between atoms: _35  and  _37
REMARK   15  A    between atoms: _37  and  _38
REMARK   16  A    between atoms: _37  and  _40
REMARK   17  A    between atoms: _40  and  _41
REMARK   18  A    between atoms: _41  and  _42
REMARK   19  A    between atoms: _42  and  _43
REMARK   20  A    between atoms: _43  and  _44
REMARK   21  A    between atoms: _48  and  _50
REMARK   22  A    between atoms: _50  and  _51
REMARK   23  A    between atoms: _50  and  _53
REMARK   24  A    between atoms: _55  and  _57
REMARK   25  A    between atoms: _57  and  _58
REMARK   26  A    between atoms: _57  and  _60
REMARK   27  A    between atoms: _60  and  _61
REMARK   28  A    between atoms: _61  and  _62
REMARK   29  A    between atoms: _64  and  _66
REMARK   30  A    between atoms: _66  and  _67
REMARK   31  A    between atoms: _66  and  _69
REMARK   32  A    between atoms: _69  and  _70
REMARK   33  A    between atoms: _70  and  _71
REMARK   34  A    between atoms: _71  and  _72
REMARK   35  A    between atoms: _81  and  _83
REMARK   36  A    between atoms: _83  and  _84
REMARK   37  A    between atoms: _83  and  _86
REMARK   38  A    between atoms: _86  and  _87
REMARK   39  A    between atoms: _89  and  _91
REMARK   40  A    between atoms: _91  and  _92
REMARK   41  A    between atoms: _91  and  _94
REMARK   42  A    between atoms: _94  and  _95
REMARK   43  A    between atoms: _98  and  _100
REMARK   44  A    between atoms: _100  and  _101
REMARK   45  A    between atoms: _100  and  _103
REMARK   46  A    between atoms: _103  and  _104
REMARK   47  A    between atoms: _104  and  _105
REMARK   48  A    between atoms: _105  and  _106
REMARK   49  A    between atoms: _115  and  _117
REMARK   50  A    between atoms: _117  and  _118
REMARK   51  A    between atoms: _117  and  _120
REMARK   52  A    between atoms: _120  and  _121
REMARK   53  A    between atoms: _121  and  _122
REMARK   54  A    between atoms: _122  and  _123
REMARK   55  A    between atoms: _132  and  _134
REMARK   56  A    between atoms: _134  and  _135
REMARK   57  A    between atoms: _134  and  _137
REMARK   58  A    between atoms: _137  and  _138
REMARK   59  A    between atoms: _148  and  _150
REMARK   60  A    between atoms: _150  and  _151
REMARK   61  A    between atoms: _150  and  _153
REMARK   62  A    between atoms: _153  and  _154
REMARK   63  A    between atoms: _154  and  _155
REMARK   64  A    between atoms: _158  and  _160
REMARK   65  A    between atoms: _160  and  _161
REMARK   66  A    between atoms: _160  and  _163
REMARK   67  A    between atoms: _163  and  _164
REMARK   68  A    between atoms: _164  and  _165
REMARK   69  A    between atoms: _168  and  _170
REMARK   70  A    between atoms: _170  and  _171
REMARK   71  A    between atoms: _170  and  _173
REMARK   72  A    between atoms: _173  and  _174
REMARK   73  A    between atoms: _174  and  _175
REMARK   74  A    between atoms: _177  and  _179
REMARK   75  A    between atoms: _179  and  _180
REMARK   76  A    between atoms: _179  and  _182
REMARK   77  A    between atoms: _185  and  _187
REMARK   78  A    between atoms: _187  and  _188
REMARK   79  A    between atoms: _187  and  _190
REMARK   80  A    between atoms: _190  and  _191
REMARK   81  A    between atoms: _191  and  _192
REMARK   82  A    between atoms: _195  and  _197
REMARK   83  A    between atoms: _197  and  _198
REMARK   84  A    between atoms: _197  and  _200
REMARK   85  A    between atoms: _200  and  _201
REMARK   86  A    between atoms: _207  and  _208
REMARK   87  A    between atoms: _213  and  _215
REMARK   88  A    between atoms: _215  and  _216
REMARK   89  A    between atoms: _215  and  _218
REMARK   90  A    between atoms: _220  and  _222
REMARK   91  A    between atoms: _222  and  _223
REMARK   92  A    between atoms: _222  and  _225
REMARK   93  A    between atoms: _225  and  _226
REMARK   94  A    between atoms: _229  and  _231
REMARK   95  A    between atoms: _231  and  _232
REMARK   96  A    between atoms: _231  and  _234
REMARK   97  A    between atoms: _234  and  _235
REMARK   98  A    between atoms: _235  and  _236
REMARK   99  A    between atoms: _239  and  _241
REMARK  100  A    between atoms: _241  and  _242
REMARK  101  A    between atoms: _241  and  _244
REMARK  102  A    between atoms: _244  and  _245
REMARK  103  A    between atoms: _245  and  _246
REMARK  104  A    between atoms: _248  and  _250
REMARK  105  A    between atoms: _250  and  _251
REMARK  106  A    between atoms: _250  and  _253
REMARK  107  A    between atoms: _253  and  _254
REMARK  108  A    between atoms: _257  and  _259
REMARK  109  A    between atoms: _259  and  _260
REMARK  110  A    between atoms: _263  and  _265
REMARK  111  A    between atoms: _265  and  _266
REMARK  112  A    between atoms: _265  and  _268
REMARK  113  A    between atoms: _268  and  _269
REMARK  114  A    between atoms: _272  and  _274
REMARK  115  A    between atoms: _274  and  _275
REMARK  116  A    between atoms: _274  and  _277
REMARK  117  A    between atoms: _280  and  _282
REMARK  118  A    between atoms: _282  and  _283
REMARK  119  A    between atoms: _282  and  _285
REMARK  120  A    between atoms: _285  and  _286
REMARK  121  A    between atoms: _291  and  _293
REMARK  122  A    between atoms: _293  and  _294
REMARK  123  A    between atoms: _293  and  _296
REMARK  124  A    between atoms: _296  and  _297
REMARK  125  A    between atoms: _301  and  _302
REMARK  126  A    between atoms: _307  and  _309
REMARK  127  A    between atoms: _309  and  _310
REMARK  128  A    between atoms: _313  and  _315
REMARK  129  A    between atoms: _315  and  _316
REMARK  130  A    between atoms: _319  and  _321
REMARK  131  A    between atoms: _321  and  _322
REMARK  132  A    between atoms: _321  and  _324
REMARK  133  A    between atoms: _324  and  _325
REMARK  134  A    between atoms: _328  and  _330
REMARK  135  A    between atoms: _330  and  _331
REMARK  136  A    between atoms: _330  and  _333
REMARK  137  A    between atoms: _333  and  _334
REMARK  138  A    between atoms: _334  and  _335
REMARK  139  A    between atoms: _335  and  _336
REMARK  140  A    between atoms: _345  and  _347
REMARK  141  A    between atoms: _347  and  _348
REMARK  142  A    between atoms: _347  and  _350
REMARK  143  A    between atoms: _350  and  _351
REMARK  144  A    between atoms: _356  and  _358
REMARK  145  A    between atoms: _358  and  _359
REMARK  146  A    between atoms: _358  and  _361
REMARK  147  A    between atoms: _364  and  _366
REMARK  148  A    between atoms: _366  and  _367
REMARK  149  A    between atoms: _366  and  _369
REMARK  150  A    between atoms: _369  and  _370
REMARK  151  A    between atoms: _373  and  _375
REMARK  152  A    between atoms: _375  and  _376
REMARK  153  A    between atoms: _379  and  _381
REMARK  154  A    between atoms: _381  and  _382
REMARK  155  A    between atoms: _381  and  _384
REMARK  156  A    between atoms: _387  and  _389
REMARK  157  A    between atoms: _389  and  _390
REMARK  158  A    between atoms: _389  and  _392
REMARK  159  A    between atoms: _392  and  _393
REMARK  160  A    between atoms: _393  and  _394
REMARK  161  A    between atoms: _397  and  _399
REMARK  162  A    between atoms: _399  and  _400
REMARK  163  A    between atoms: _399  and  _402
REMARK  164  A    between atoms: _402  and  _403
REMARK  165  A    between atoms: _408  and  _410
REMARK  166  A    between atoms: _410  and  _411
REMARK  167  A    between atoms: _410  and  _413
REMARK  168  A    between atoms: _413  and  _414
REMARK  169  A    between atoms: _416  and  _418
REMARK  170  A    between atoms: _418  and  _419
REMARK  171  A    between atoms: _418  and  _421
REMARK  172  A    between atoms: _421  and  _422
REMARK  173  A    between atoms: _422  and  _423
REMARK  174  A    between atoms: _423  and  _424
REMARK  175  A    between atoms: _424  and  _425
REMARK  176  A    between atoms: _429  and  _431
REMARK  177  A    between atoms: _431  and  _432
REMARK  178  A    between atoms: _431  and  _434
REMARK  179  A    between atoms: _434  and  _435
REMARK  180  A    between atoms: _440  and  _442
REMARK  181  A    between atoms: _442  and  _443
REMARK  182  A    between atoms: _442  and  _445
REMARK  183  A    between atoms: _448  and  _450
REMARK  184  A    between atoms: _450  and  _451
REMARK  185  A    between atoms: _450  and  _453
REMARK  186  A    between atoms: _453  and  _454
REMARK  187  A    between atoms: _464  and  _466
REMARK  188  A    between atoms: _466  and  _467
REMARK  189  A    between atoms: _469  and  _471
REMARK  190  A    between atoms: _471  and  _472
REMARK  191  A    between atoms: _471  and  _474
REMARK  192  A    between atoms: _474  and  _475
REMARK  193  A    between atoms: _480  and  _481
REMARK  194  A    between atoms: _483  and  _485
REMARK  195  A    between atoms: _485  and  _486
REMARK  196  A    between atoms: _485  and  _488
REMARK  197  A    between atoms: _488  and  _489
REMARK  198  A    between atoms: _494  and  _496
REMARK  199  A    between atoms: _496  and  _497
REMARK  200  A    between atoms: _496  and  _499
REMARK  201  A    between atoms: _501  and  _503
REMARK  202  A    between atoms: _503  and  _504
REMARK  203  A    between atoms: _503  and  _506
REMARK  204  A    between atoms: _506  and  _507
REMARK  205  A    between atoms: _513  and  _515
REMARK  206  A    between atoms: _515  and  _516
REMARK  207  A    between atoms: _515  and  _518
REMARK  208  A    between atoms: _518  and  _519
REMARK  209  A    between atoms: _521  and  _523
REMARK  210  A    between atoms: _523  and  _524
REMARK  211  A    between atoms: _523  and  _526
REMARK  212  A    between atoms: _526  and  _527
REMARK  213  A    between atoms: _537  and  _539
REMARK  214  A    between atoms: _539  and  _540
REMARK  215  A    between atoms: _542  and  _544
REMARK  216  A    between atoms: _544  and  _545
REMARK  217  A    between atoms: _544  and  _547
REMARK  218  A    between atoms: _547  and  _548
REMARK  219  A    between atoms: _548  and  _549
REMARK                            x       y       z     vdW  Elec       q    Type
REMARK                         _______ _______ _______ _____ _____    ______ ____
ROOT
ATOM      1  O   HOH     1     -50.263  26.250 -27.276  0.00  0.00    +0.000 OA
ENDROOT
TORSDOF 0
