REMARK  Name = ../refined-set-2016/4agn/4agn_pocket.pdb
REMARK  106 active torsions:
REMARK  status: ('A' for Active; 'I' for Inactive)
REMARK    1  A    between atoms: _1  and  _3
REMARK    2  A    between atoms: _3  and  _4
REMARK    3  A    between atoms: _3  and  _6
REMARK    4  A    between atoms: _6  and  _7
REMARK    5  A    between atoms: _12  and  _13
REMARK    6  A    between atoms: _15  and  _17
REMARK    7  A    between atoms: _17  and  _18
REMARK    8  A    between atoms: _17  and  _20
REMARK    9  A    between atoms: _20  and  _21
REMARK   10  A    between atoms: _27  and  _29
REMARK   11  A    between atoms: _29  and  _30
REMARK   12  A    between atoms: _29  and  _32
REMARK   13  A    between atoms: _32  and  _33
REMARK   14  A    between atoms: _33  and  _34
REMARK   15  A    between atoms: _34  and  _35
REMARK   16  A    between atoms: _44  and  _46
REMARK   17  A    between atoms: _46  and  _47
REMARK   18  A    between atoms: _46  and  _49
REMARK   19  A    between atoms: _49  and  _50
REMARK   20  A    between atoms: _50  and  _51
REMARK   21  A    between atoms: _56  and  _58
REMARK   22  A    between atoms: _58  and  _59
REMARK   23  A    between atoms: _58  and  _61
REMARK   24  A    between atoms: _61  and  _62
REMARK   25  A    between atoms: _65  and  _67
REMARK   26  A    between atoms: _67  and  _68
REMARK   27  A    between atoms: _67  and  _70
REMARK   28  A    between atoms: _70  and  _71
REMARK   29  A    between atoms: _81  and  _83
REMARK   30  A    between atoms: _83  and  _84
REMARK   31  A    between atoms: _83  and  _86
REMARK   32  A    between atoms: _89  and  _91
REMARK   33  A    between atoms: _91  and  _92
REMARK   34  A    between atoms: _91  and  _94
REMARK   35  A    between atoms: _94  and  _95
REMARK   36  A    between atoms: _98  and  _100
REMARK   37  A    between atoms: _100  and  _101
REMARK   38  A    between atoms: _100  and  _103
REMARK   39  A    between atoms: _103  and  _104
REMARK   40  A    between atoms: _106  and  _108
REMARK   41  A    between atoms: _108  and  _109
REMARK   42  A    between atoms: _108  and  _111
REMARK   43  A    between atoms: _111  and  _112
REMARK   44  A    between atoms: _116  and  _117
REMARK   45  A    between atoms: _123  and  _124
REMARK   46  A    between atoms: _130  and  _131
REMARK   47  A    between atoms: _136  and  _138
REMARK   48  A    between atoms: _138  and  _139
REMARK   49  A    between atoms: _141  and  _143
REMARK   50  A    between atoms: _143  and  _144
REMARK   51  A    between atoms: _143  and  _146
REMARK   52  A    between atoms: _146  and  _147
REMARK   53  A    between atoms: _150  and  _152
REMARK   54  A    between atoms: _152  and  _153
REMARK   55  A    between atoms: _152  and  _155
REMARK   56  A    between atoms: _155  and  _156
REMARK   57  A    between atoms: _156  and  _157
REMARK   58  A    between atoms: _157  and  _158
REMARK   59  A    between atoms: _167  and  _169
REMARK   60  A    between atoms: _169  and  _170
REMARK   61  A    between atoms: _169  and  _172
REMARK   62  A    between atoms: _175  and  _177
REMARK   63  A    between atoms: _177  and  _178
REMARK   64  A    between atoms: _177  and  _180
REMARK   65  A    between atoms: _180  and  _181
REMARK   66  A    between atoms: _181  and  _182
REMARK   67  A    between atoms: _182  and  _183
REMARK   68  A    between atoms: _193  and  _194
REMARK   69  A    between atoms: _199  and  _201
REMARK   70  A    between atoms: _201  and  _202
REMARK   71  A    between atoms: _201  and  _204
REMARK   72  A    between atoms: _206  and  _208
REMARK   73  A    between atoms: _208  and  _209
REMARK   74  A    between atoms: _208  and  _211
REMARK   75  A    between atoms: _211  and  _212
REMARK   76  A    between atoms: _212  and  _213
REMARK   77  A    between atoms: _217  and  _218
REMARK   78  A    between atoms: _224  and  _225
REMARK   79  A    between atoms: _230  and  _232
REMARK   80  A    between atoms: _232  and  _233
REMARK   81  A    between atoms: _232  and  _235
REMARK   82  A    between atoms: _235  and  _236
REMARK   83  A    between atoms: _236  and  _237
REMARK   84  A    between atoms: _240  and  _242
REMARK   85  A    between atoms: _242  and  _243
REMARK   86  A    between atoms: _242  and  _245
REMARK   87  A    between atoms: _245  and  _246
REMARK   88  A    between atoms: _248  and  _250
REMARK   89  A    between atoms: _250  and  _251
REMARK   90  A    between atoms: _250  and  _253
REMARK   91  A    between atoms: _253  and  _254
REMARK   92  A    between atoms: _257  and  _259
REMARK   93  A    between atoms: _259  and  _260
REMARK   94  A    between atoms: _259  and  _262
REMARK   95  A    between atoms: _264  and  _266
REMARK   96  A    between atoms: _266  and  _267
REMARK   97  A    between atoms: _266  and  _269
REMARK   98  A    between atoms: _269  and  _270
REMARK   99  A    between atoms: _273  and  _275
REMARK  100  A    between atoms: _275  and  _276
REMARK  101  A    between atoms: _275  and  _278
REMARK  102  A    between atoms: _278  and  _279
REMARK  103  A    between atoms: _282  and  _284
REMARK  104  A    between atoms: _284  and  _285
REMARK  105  A    between atoms: _284  and  _287
REMARK  106  A    between atoms: _287  and  _288
REMARK                            x       y       z     vdW  Elec       q    Type
REMARK                         _______ _______ _______ _____ _____    ______ ____
ROOT
ATOM      1  CG  TYR A   1      99.671  94.982 -47.101  0.00  0.00    -0.020 A 
ATOM      2  CD2 TYR A   1     100.438  93.854 -47.366  0.00  0.00    -0.001 A 
ATOM      3  CE2 TYR A   1     100.617  93.405 -48.674  0.00  0.00    +0.036 A 
ATOM      4  CZ  TYR A   1     100.025  94.098 -49.709  0.00  0.00    +0.134 A 
ATOM      5  CE1 TYR A   1      99.274  95.224 -49.463  0.00  0.00    +0.036 A 
ATOM      6  CD1 TYR A   1      99.099  95.658 -48.167  0.00  0.00    -0.001 A 
ENDROOT
BRANCH   4   7
ATOM      7  OH  TYR A   1     100.189  93.667 -51.014  0.00  0.00    -0.506 OA
ATOM      8  HH  TYR A   1     101.152  93.671 -51.243  0.00  0.00    +0.292 HD
ENDBRANCH   4   7
BRANCH   1   9
ATOM      9  CB  TYR A   1      99.503  95.495 -45.697  0.00  0.00    +0.051 C 
BRANCH   9  10
ATOM     10  CA  TYR A   1     100.329  96.783 -45.514  0.00  0.00    +0.137 C 
BRANCH  10  11
ATOM     11  N   TYR A   1     101.737  96.521 -45.791  0.00  0.00    -0.239 NA
ATOM     12  H   TYR A   1     102.188  95.677 -45.384  0.00  0.00    +0.142 HD
ENDBRANCH  10  11
BRANCH  10  13
ATOM     13  C   TYR A   1     100.110  97.425 -44.151  0.00  0.00    +0.224 C 
ATOM     14  O   TYR A   1      98.978  97.708 -43.780  0.00  0.00    -0.287 OA
ENDBRANCH  10  13
ENDBRANCH   9  10
ENDBRANCH   1   9
TORSDOF 5
REMARK  Name = ../refined-set-2016/4agn/4agn_pocket.pdb
REMARK  106 active torsions:
REMARK  status: ('A' for Active; 'I' for Inactive)
REMARK    1  A    between atoms: _1  and  _3
REMARK    2  A    between atoms: _3  and  _4
REMARK    3  A    between atoms: _3  and  _6
REMARK    4  A    between atoms: _6  and  _7
REMARK    5  A    between atoms: _12  and  _13
REMARK    6  A    between atoms: _15  and  _17
REMARK    7  A    between atoms: _17  and  _18
REMARK    8  A    between atoms: _17  and  _20
REMARK    9  A    between atoms: _20  and  _21
REMARK   10  A    between atoms: _27  and  _29
REMARK   11  A    between atoms: _29  and  _30
REMARK   12  A    between atoms: _29  and  _32
REMARK   13  A    between atoms: _32  and  _33
REMARK   14  A    between atoms: _33  and  _34
REMARK   15  A    between atoms: _34  and  _35
REMARK   16  A    between atoms: _44  and  _46
REMARK   17  A    between atoms: _46  and  _47
REMARK   18  A    between atoms: _46  and  _49
REMARK   19  A    between atoms: _49  and  _50
REMARK   20  A    between atoms: _50  and  _51
REMARK   21  A    between atoms: _56  and  _58
REMARK   22  A    between atoms: _58  and  _59
REMARK   23  A    between atoms: _58  and  _61
REMARK   24  A    between atoms: _61  and  _62
REMARK   25  A    between atoms: _65  and  _67
REMARK   26  A    between atoms: _67  and  _68
REMARK   27  A    between atoms: _67  and  _70
REMARK   28  A    between atoms: _70  and  _71
REMARK   29  A    between atoms: _81  and  _83
REMARK   30  A    between atoms: _83  and  _84
REMARK   31  A    between atoms: _83  and  _86
REMARK   32  A    between atoms: _89  and  _91
REMARK   33  A    between atoms: _91  and  _92
REMARK   34  A    between atoms: _91  and  _94
REMARK   35  A    between atoms: _94  and  _95
REMARK   36  A    between atoms: _98  and  _100
REMARK   37  A    between atoms: _100  and  _101
REMARK   38  A    between atoms: _100  and  _103
REMARK   39  A    between atoms: _103  and  _104
REMARK   40  A    between atoms: _106  and  _108
REMARK   41  A    between atoms: _108  and  _109
REMARK   42  A    between atoms: _108  and  _111
REMARK   43  A    between atoms: _111  and  _112
REMARK   44  A    between atoms: _116  and  _117
REMARK   45  A    between atoms: _123  and  _124
REMARK   46  A    between atoms: _130  and  _131
REMARK   47  A    between atoms: _136  and  _138
REMARK   48  A    between atoms: _138  and  _139
REMARK   49  A    between atoms: _141  and  _143
REMARK   50  A    between atoms: _143  and  _144
REMARK   51  A    between atoms: _143  and  _146
REMARK   52  A    between atoms: _146  and  _147
REMARK   53  A    between atoms: _150  and  _152
REMARK   54  A    between atoms: _152  and  _153
REMARK   55  A    between atoms: _152  and  _155
REMARK   56  A    between atoms: _155  and  _156
REMARK   57  A    between atoms: _156  and  _157
REMARK   58  A    between atoms: _157  and  _158
REMARK   59  A    between atoms: _167  and  _169
REMARK   60  A    between atoms: _169  and  _170
REMARK   61  A    between atoms: _169  and  _172
REMARK   62  A    between atoms: _175  and  _177
REMARK   63  A    between atoms: _177  and  _178
REMARK   64  A    between atoms: _177  and  _180
REMARK   65  A    between atoms: _180  and  _181
REMARK   66  A    between atoms: _181  and  _182
REMARK   67  A    between atoms: _182  and  _183
REMARK   68  A    between atoms: _193  and  _194
REMARK   69  A    between atoms: _199  and  _201
REMARK   70  A    between atoms: _201  and  _202
REMARK   71  A    between atoms: _201  and  _204
REMARK   72  A    between atoms: _206  and  _208
REMARK   73  A    between atoms: _208  and  _209
REMARK   74  A    between atoms: _208  and  _211
REMARK   75  A    between atoms: _211  and  _212
REMARK   76  A    between atoms: _212  and  _213
REMARK   77  A    between atoms: _217  and  _218
REMARK   78  A    between atoms: _224  and  _225
REMARK   79  A    between atoms: _230  and  _232
REMARK   80  A    between atoms: _232  and  _233
REMARK   81  A    between atoms: _232  and  _235
REMARK   82  A    between atoms: _235  and  _236
REMARK   83  A    between atoms: _236  and  _237
REMARK   84  A    between atoms: _240  and  _242
REMARK   85  A    between atoms: _242  and  _243
REMARK   86  A    between atoms: _242  and  _245
REMARK   87  A    between atoms: _245  and  _246
REMARK   88  A    between atoms: _248  and  _250
REMARK   89  A    between atoms: _250  and  _251
REMARK   90  A    between atoms: _250  and  _253
REMARK   91  A    between atoms: _253  and  _254
REMARK   92  A    between atoms: _257  and  _259
REMARK   93  A    between atoms: _259  and  _260
REMARK   94  A    between atoms: _259  and  _262
REMARK   95  A    between atoms: _264  and  _266
REMARK   96  A    between atoms: _266  and  _267
REMARK   97  A    between atoms: _266  and  _269
REMARK   98  A    between atoms: _269  and  _270
REMARK   99  A    between atoms: _273  and  _275
REMARK  100  A    between atoms: _275  and  _276
REMARK  101  A    between atoms: _275  and  _278
REMARK  102  A    between atoms: _278  and  _279
REMARK  103  A    between atoms: _282  and  _284
REMARK  104  A    between atoms: _284  and  _285
REMARK  105  A    between atoms: _284  and  _287
REMARK  106  A    between atoms: _287  and  _288
REMARK                            x       y       z     vdW  Elec       q    Type
REMARK                         _______ _______ _______ _____ _____    ______ ____
ROOT
ATOM      1  CA  ARG A   2      99.689  95.142 -36.477  0.00  0.00    +0.137 C 
ENDROOT
BRANCH   1   3
ATOM      2  C   PHE A   1     100.416  95.238 -38.802  0.00  0.00    +0.239 C 
ATOM      3  N   ARG A   2      99.425  95.245 -37.912  0.00  0.00    -0.298 N 
ATOM      4  H   ARG A   2      98.443  95.325 -38.244  0.00  0.00    +0.150 HD
ATOM      5  O   PHE A   1     101.597  95.275 -38.480  0.00  0.00    -0.274 OA
BRANCH   2   6
ATOM      6  CA  PHE A   1     100.017  95.159 -40.270  0.00  0.00    +0.149 C 
BRANCH   6   7
ATOM      7  N   PHE A   1     100.703  96.145 -41.109  0.00  0.00    -0.238 NA
ATOM      8  H   PHE A   1     101.485  95.824 -41.715  0.00  0.00    +0.142 HD
ENDBRANCH   6   7
BRANCH   6   9
ATOM      9  CB  PHE A   1     100.345  93.756 -40.789  0.00  0.00    +0.053 C 
BRANCH   9  10
ATOM     10  CG  PHE A   1      99.799  92.642 -39.945  0.00  0.00    -0.020 A 
ATOM     11  CD2 PHE A   1     100.647  91.877 -39.149  0.00  0.00    -0.004 A 
ATOM     12  CE2 PHE A   1     100.140  90.832 -38.367  0.00  0.00    -0.000 A 
ATOM     13  CZ  PHE A   1      98.780  90.572 -38.377  0.00  0.00    -0.000 A 
ATOM     14  CE1 PHE A   1      97.927  91.323 -39.179  0.00  0.00    -0.000 A 
ATOM     15  CD1 PHE A   1      98.441  92.359 -39.953  0.00  0.00    -0.004 A 
ENDBRANCH   9  10
ENDBRANCH   6   9
ENDBRANCH   2   6
ENDBRANCH   1   3
BRANCH   1  16
ATOM     16  C   ARG A   2      98.440  94.672 -35.743  0.00  0.00    +0.227 C 
ATOM     17  O   ARG A   2      97.326  94.797 -36.263  0.00  0.00    -0.286 OA
ENDBRANCH   1  16
BRANCH   1  18
ATOM     18  CB  ARG A   2     100.172  96.484 -35.876  0.00  0.00    +0.031 C 
BRANCH  18  19
ATOM     19  CG  ARG A   2      99.121  97.591 -35.755  0.00  0.00    +0.045 C 
BRANCH  19  20
ATOM     20  CD  ARG A   2      98.889  98.307 -37.082  0.00  0.00    +0.174 C 
BRANCH  20  21
ATOM     21  NE  ARG A   2      97.951  99.420 -36.941  0.00  0.00    -0.265 N 
ATOM     22  HE  ARG A   2      97.592  99.641 -35.990  0.00  0.00    +0.259 HD
ATOM     23  CZ  ARG A   2      97.530 100.167 -37.961  0.00  0.00    +0.342 C 
ATOM     24  NH2 ARG A   2      96.661 101.157 -37.757  0.00  0.00    -0.292 N 
ATOM     25 HH21 ARG A   2      96.308 101.350 -36.798  0.00  0.00    +0.255 HD
ATOM     26 HH22 ARG A   2      96.336 101.737 -38.557  0.00  0.00    +0.255 HD
ATOM     27  NH1 ARG A   2      97.985  99.932 -39.194  0.00  0.00    -0.292 N 
ATOM     28 HH11 ARG A   2      98.668  99.166 -39.359  0.00  0.00    +0.255 HD
ATOM     29 HH12 ARG A   2      97.656 100.515 -39.990  0.00  0.00    +0.255 HD
ENDBRANCH  20  21
ENDBRANCH  19  20
ENDBRANCH  18  19
ENDBRANCH   1  18
TORSDOF 10
REMARK  Name = ../refined-set-2016/4agn/4agn_pocket.pdb
REMARK  106 active torsions:
REMARK  status: ('A' for Active; 'I' for Inactive)
REMARK    1  A    between atoms: _1  and  _3
REMARK    2  A    between atoms: _3  and  _4
REMARK    3  A    between atoms: _3  and  _6
REMARK    4  A    between atoms: _6  and  _7
REMARK    5  A    between atoms: _12  and  _13
REMARK    6  A    between atoms: _15  and  _17
REMARK    7  A    between atoms: _17  and  _18
REMARK    8  A    between atoms: _17  and  _20
REMARK    9  A    between atoms: _20  and  _21
REMARK   10  A    between atoms: _27  and  _29
REMARK   11  A    between atoms: _29  and  _30
REMARK   12  A    between atoms: _29  and  _32
REMARK   13  A    between atoms: _32  and  _33
REMARK   14  A    between atoms: _33  and  _34
REMARK   15  A    between atoms: _34  and  _35
REMARK   16  A    between atoms: _44  and  _46
REMARK   17  A    between atoms: _46  and  _47
REMARK   18  A    between atoms: _46  and  _49
REMARK   19  A    between atoms: _49  and  _50
REMARK   20  A    between atoms: _50  and  _51
REMARK   21  A    between atoms: _56  and  _58
REMARK   22  A    between atoms: _58  and  _59
REMARK   23  A    between atoms: _58  and  _61
REMARK   24  A    between atoms: _61  and  _62
REMARK   25  A    between atoms: _65  and  _67
REMARK   26  A    between atoms: _67  and  _68
REMARK   27  A    between atoms: _67  and  _70
REMARK   28  A    between atoms: _70  and  _71
REMARK   29  A    between atoms: _81  and  _83
REMARK   30  A    between atoms: _83  and  _84
REMARK   31  A    between atoms: _83  and  _86
REMARK   32  A    between atoms: _89  and  _91
REMARK   33  A    between atoms: _91  and  _92
REMARK   34  A    between atoms: _91  and  _94
REMARK   35  A    between atoms: _94  and  _95
REMARK   36  A    between atoms: _98  and  _100
REMARK   37  A    between atoms: _100  and  _101
REMARK   38  A    between atoms: _100  and  _103
REMARK   39  A    between atoms: _103  and  _104
REMARK   40  A    between atoms: _106  and  _108
REMARK   41  A    between atoms: _108  and  _109
REMARK   42  A    between atoms: _108  and  _111
REMARK   43  A    between atoms: _111  and  _112
REMARK   44  A    between atoms: _116  and  _117
REMARK   45  A    between atoms: _123  and  _124
REMARK   46  A    between atoms: _130  and  _131
REMARK   47  A    between atoms: _136  and  _138
REMARK   48  A    between atoms: _138  and  _139
REMARK   49  A    between atoms: _141  and  _143
REMARK   50  A    between atoms: _143  and  _144
REMARK   51  A    between atoms: _143  and  _146
REMARK   52  A    between atoms: _146  and  _147
REMARK   53  A    between atoms: _150  and  _152
REMARK   54  A    between atoms: _152  and  _153
REMARK   55  A    between atoms: _152  and  _155
REMARK   56  A    between atoms: _155  and  _156
REMARK   57  A    between atoms: _156  and  _157
REMARK   58  A    between atoms: _157  and  _158
REMARK   59  A    between atoms: _167  and  _169
REMARK   60  A    between atoms: _169  and  _170
REMARK   61  A    between atoms: _169  and  _172
REMARK   62  A    between atoms: _175  and  _177
REMARK   63  A    between atoms: _177  and  _178
REMARK   64  A    between atoms: _177  and  _180
REMARK   65  A    between atoms: _180  and  _181
REMARK   66  A    between atoms: _181  and  _182
REMARK   67  A    between atoms: _182  and  _183
REMARK   68  A    between atoms: _193  and  _194
REMARK   69  A    between atoms: _199  and  _201
REMARK   70  A    between atoms: _201  and  _202
REMARK   71  A    between atoms: _201  and  _204
REMARK   72  A    between atoms: _206  and  _208
REMARK   73  A    between atoms: _208  and  _209
REMARK   74  A    between atoms: _208  and  _211
REMARK   75  A    between atoms: _211  and  _212
REMARK   76  A    between atoms: _212  and  _213
REMARK   77  A    between atoms: _217  and  _218
REMARK   78  A    between atoms: _224  and  _225
REMARK   79  A    between atoms: _230  and  _232
REMARK   80  A    between atoms: _232  and  _233
REMARK   81  A    between atoms: _232  and  _235
REMARK   82  A    between atoms: _235  and  _236
REMARK   83  A    between atoms: _236  and  _237
REMARK   84  A    between atoms: _240  and  _242
REMARK   85  A    between atoms: _242  and  _243
REMARK   86  A    between atoms: _242  and  _245
REMARK   87  A    between atoms: _245  and  _246
REMARK   88  A    between atoms: _248  and  _250
REMARK   89  A    between atoms: _250  and  _251
REMARK   90  A    between atoms: _250  and  _253
REMARK   91  A    between atoms: _253  and  _254
REMARK   92  A    between atoms: _257  and  _259
REMARK   93  A    between atoms: _259  and  _260
REMARK   94  A    between atoms: _259  and  _262
REMARK   95  A    between atoms: _264  and  _266
REMARK   96  A    between atoms: _266  and  _267
REMARK   97  A    between atoms: _266  and  _269
REMARK   98  A    between atoms: _269  and  _270
REMARK   99  A    between atoms: _273  and  _275
REMARK  100  A    between atoms: _275  and  _276
REMARK  101  A    between atoms: _275  and  _278
REMARK  102  A    between atoms: _278  and  _279
REMARK  103  A    between atoms: _282  and  _284
REMARK  104  A    between atoms: _284  and  _285
REMARK  105  A    between atoms: _284  and  _287
REMARK  106  A    between atoms: _287  and  _288
REMARK                            x       y       z     vdW  Elec       q    Type
REMARK                         _______ _______ _______ _____ _____    ______ ____
ROOT
ATOM      1  CA  THR A   7      94.111  96.278 -48.050  0.00  0.00    +0.176 C 
ENDROOT
BRANCH   1   2
ATOM      2  C   THR A   7      95.096  95.281 -48.663  0.00  0.00    +0.246 C 
ATOM      3  N   PRO A   8      95.349  94.167 -47.968  0.00  0.00    -0.272 N 
ATOM      4  CD  PRO A   8      94.894  93.846 -46.603  0.00  0.00    +0.094 C 
ATOM      5  CG  PRO A   8      95.587  92.548 -46.295  0.00  0.00    +0.024 C 
ATOM      6  CB  PRO A   8      96.481  92.165 -47.400  0.00  0.00    +0.031 C 
ATOM      7  CA  PRO A   8      96.183  93.118 -48.569  0.00  0.00    +0.152 C 
ATOM      8  O   THR A   7      95.604  95.502 -49.757  0.00  0.00    -0.273 OA
BRANCH   7   9
ATOM      9  C   PRO A   8      95.427  92.371 -49.666  0.00  0.00    +0.244 C 
ATOM     10  O   PRO A   8      94.195  92.382 -49.709  0.00  0.00    -0.273 OA
ATOM     11  N   PRO A   9      96.168  91.706 -50.557  0.00  0.00    -0.272 N 
ATOM     12  CD  PRO A   9      97.636  91.691 -50.664  0.00  0.00    +0.094 C 
ATOM     13  CG  PRO A   9      97.859  91.326 -52.116  0.00  0.00    +0.024 C 
ATOM     14  CB  PRO A   9      96.719  90.409 -52.427  0.00  0.00    +0.031 C 
ATOM     15  CA  PRO A   9      95.527  91.021 -51.683  0.00  0.00    +0.152 C 
BRANCH  15  16
ATOM     16  C   PRO A   9      94.566  89.923 -51.249  0.00  0.00    +0.244 C 
ATOM     17  O   PRO A   9      94.739  89.342 -50.174  0.00  0.00    -0.273 OA
ATOM     18  N   PRO A  10      93.564  89.625 -52.084  0.00  0.00    -0.272 N 
ATOM     19  CA  PRO A  10      92.717  88.461 -51.821  0.00  0.00    +0.152 C 
ATOM     20  CB  PRO A  10      91.813  88.398 -53.059  0.00  0.00    +0.031 C 
ATOM     21  CG  PRO A  10      91.821  89.789 -53.617  0.00  0.00    +0.024 C 
ATOM     22  CD  PRO A  10      93.189  90.332 -53.322  0.00  0.00    +0.094 C 
BRANCH  19  23
ATOM     23  C   PRO A  10      93.591  87.207 -51.741  0.00  0.00    +0.241 C 
ATOM     24  N   GLY A  11      93.334  86.340 -50.769  0.00  0.00    -0.295 N 
ATOM     25  H   GLY A  11      92.533  86.502 -50.126  0.00  0.00    +0.150 HD
ATOM     26  O   PRO A  10      94.498  87.039 -52.561  0.00  0.00    -0.273 OA
BRANCH  24  27
ATOM     27  CA  GLY A  11      94.172  85.165 -50.604  0.00  0.00    +0.176 C 
BRANCH  27  28
ATOM     28  C   GLY A  11      95.207  85.313 -49.503  0.00  0.00    +0.243 C 
ATOM     29  N   THR A  12      95.363  86.529 -48.987  0.00  0.00    -0.295 N 
ATOM     30  H   THR A  12      94.878  87.336 -49.428  0.00  0.00    +0.150 HD
ATOM     31  O   GLY A  11      95.859  84.338 -49.123  0.00  0.00    -0.273 OA
BRANCH  29  32
ATOM     32  CA  THR A  12      96.203  86.752 -47.812  0.00  0.00    +0.176 C 
BRANCH  32  33
ATOM     33  C   THR A  12      95.622  85.951 -46.652  0.00  0.00    +0.243 C 
ATOM     34  N   ARG A  13      96.495  85.413 -45.793  0.00  0.00    -0.297 N 
ATOM     35  H   ARG A  13      97.515  85.545 -45.948  0.00  0.00    +0.150 HD
ATOM     36  O   THR A  12      94.392  85.807 -46.550  0.00  0.00    -0.273 OA
BRANCH  34  37
ATOM     37  CA  ARG A  13      96.034  84.641 -44.638  0.00  0.00    +0.149 C 
BRANCH  37  38
ATOM     38  C   ARG A  13      96.710  85.112 -43.354  0.00  0.00    +0.241 C 
ATOM     39  N   VAL A  14      96.159  84.675 -42.220  0.00  0.00    -0.298 N 
ATOM     40  H   VAL A  14      95.343  84.033 -42.274  0.00  0.00    +0.150 HD
ATOM     41  O   ARG A  13      97.719  85.846 -43.384  0.00  0.00    -0.273 OA
BRANCH  39  42
ATOM     42  CA  VAL A  14      96.659  85.065 -40.912  0.00  0.00    +0.137 C 
BRANCH  42  43
ATOM     43  CB  VAL A  14      95.628  85.930 -40.175  0.00  0.00    +0.026 C 
ATOM     44  CG2 VAL A  14      96.202  86.436 -38.864  0.00  0.00    +0.002 C 
ATOM     45  CG1 VAL A  14      95.204  87.104 -41.060  0.00  0.00    +0.002 C 
ENDBRANCH  42  43
BRANCH  42  46
ATOM     46  C   VAL A  14      96.892  83.798 -40.118  0.00  0.00    +0.227 C 
ATOM     47  O   VAL A  14      95.958  83.030 -39.896  0.00  0.00    -0.286 OA
ENDBRANCH  42  46
ENDBRANCH  39  42
ENDBRANCH  37  38
BRANCH  37  48
ATOM     48  CB  ARG A  13      96.276  83.136 -44.833  0.00  0.00    +0.033 C 
BRANCH  48  49
ATOM     49  CG  ARG A  13      95.560  82.573 -46.057  0.00  0.00    +0.045 C 
BRANCH  49  50
ATOM     50  CD  ARG A  13      95.250  81.063 -45.900  0.00  0.00    +0.174 C 
BRANCH  50  51
ATOM     51  NE  ARG A  13      96.463  80.252 -45.955  0.00  0.00    -0.265 N 
ATOM     52  CZ  ARG A  13      96.481  78.933 -45.772  0.00  0.00    +0.342 C 
ATOM     53  NH2 ARG A  13      95.349  78.287 -45.519  0.00  0.00    -0.292 N 
ATOM     54 HH21 ARG A  13      95.359  77.257 -45.376  0.00  0.00    +0.255 HD
ATOM     55 HH22 ARG A  13      94.452  78.811 -45.464  0.00  0.00    +0.255 HD
ATOM     56  NH1 ARG A  13      97.627  78.260 -45.849  0.00  0.00    -0.292 N 
ATOM     57 HH11 ARG A  13      97.636  77.230 -45.705  0.00  0.00    +0.255 HD
ATOM     58 HH12 ARG A  13      98.513  78.764 -46.053  0.00  0.00    +0.255 HD
ATOM     59  HE  ARG A  13      97.365  80.732 -46.148  0.00  0.00    +0.259 HD
ENDBRANCH  50  51
ENDBRANCH  49  50
ENDBRANCH  48  49
ENDBRANCH  37  48
ENDBRANCH  34  37
ENDBRANCH  32  33
BRANCH  32  60
ATOM     60  CB  THR A  12      96.244  88.246 -47.468  0.00  0.00    +0.137 C 
ATOM     61  CG2 THR A  12      97.115  88.507 -46.232  0.00  0.00    +0.034 C 
BRANCH  60  62
ATOM     62  OG1 THR A  12      96.782  88.950 -48.593  0.00  0.00    -0.382 OA
ATOM     63  HG1 THR A  12      96.205  88.798 -49.383  0.00  0.00    +0.210 HD
ENDBRANCH  60  62
ENDBRANCH  32  60
ENDBRANCH  29  32
ENDBRANCH  27  28
ENDBRANCH  24  27
ENDBRANCH  19  23
ENDBRANCH  15  16
ENDBRANCH   7   9
ENDBRANCH   1   2
BRANCH   1  66
ATOM     64  C   SER A   6      95.653  97.797 -46.915  0.00  0.00    +0.243 C 
ATOM     65  O   SER A   6      96.135  96.901 -46.222  0.00  0.00    -0.273 OA
ATOM     66  N   THR A   7      94.721  97.586 -47.833  0.00  0.00    -0.295 N 
ATOM     67  H   THR A   7      94.412  98.385 -48.423  0.00  0.00    +0.150 HD
BRANCH  64  68
ATOM     68  CA  SER A   6      96.079  99.252 -46.727  0.00  0.00    +0.178 C 
BRANCH  68  71
ATOM     69  C   ASP A   5      96.451 100.618 -44.754  0.00  0.00    +0.241 C 
ATOM     70  O   ASP A   5      95.911 101.594 -45.272  0.00  0.00    -0.273 OA
ATOM     71  N   SER A   6      96.618  99.463 -45.390  0.00  0.00    -0.295 N 
ATOM     72  H   SER A   6      97.143  98.695 -44.925  0.00  0.00    +0.150 HD
BRANCH  69  73
ATOM     73  CA  ASP A   5      97.003 100.708 -43.338  0.00  0.00    +0.160 C 
BRANCH  73  76
ATOM     74  C   VAL A   4      96.044  98.871 -42.031  0.00  0.00    +0.241 C 
ATOM     75  O   VAL A   4      94.979  99.477 -41.835  0.00  0.00    -0.273 OA
ATOM     76  N   ASP A   5      97.074  99.391 -42.691  0.00  0.00    -0.297 N 
ATOM     77  H   ASP A   5      97.959  98.848 -42.751  0.00  0.00    +0.150 HD
BRANCH  74  78
ATOM     78  CA  VAL A   4      96.235  97.445 -41.546  0.00  0.00    +0.149 C 
BRANCH  78  81
ATOM     79  C   TRP A   3      95.770  96.479 -39.368  0.00  0.00    +0.241 C 
ATOM     80  O   TRP A   3      96.876  95.953 -39.299  0.00  0.00    -0.273 OA
ATOM     81  N   VAL A   4      95.348  97.166 -40.426  0.00  0.00    -0.297 N 
ATOM     82  H   VAL A   4      94.367  97.510 -40.453  0.00  0.00    +0.150 HD
BRANCH  79  83
ATOM     83  CA  TRP A   3      94.806  96.369 -38.211  0.00  0.00    +0.153 C 
BRANCH  83  85
ATOM     84  C   LEU A   2      93.782  94.224 -37.599  0.00  0.00    +0.241 C 
ATOM     85  N   TRP A   3      94.851  95.018 -37.646  0.00  0.00    -0.297 N 
ATOM     86  H   TRP A   3      95.753  94.665 -37.267  0.00  0.00    +0.150 HD
ATOM     87  O   LEU A   2      92.672  94.545 -38.020  0.00  0.00    -0.273 OA
BRANCH  84  88
ATOM     88  CA  LEU A   2      93.974  92.859 -36.974  0.00  0.00    +0.149 C 
BRANCH  88  91
ATOM     89  C   GLN A   1      93.359  92.609 -34.615  0.00  0.00    +0.238 C 
ATOM     90  O   GLN A   1      94.532  92.551 -34.236  0.00  0.00    -0.274 OA
ATOM     91  N   LEU A   2      92.996  92.702 -35.892  0.00  0.00    -0.297 N 
ATOM     92  H   LEU A   2      91.985  92.662 -36.131  0.00  0.00    +0.150 HD
BRANCH  89  93
ATOM     93  CA  GLN A   1      92.218  92.614 -33.614  0.00  0.00    +0.145 C 
BRANCH  93  94
ATOM     94  N   GLN A   1      92.478  91.779 -32.439  0.00  0.00    -0.238 NA
ATOM     95  H   GLN A   1      92.900  92.213 -31.593  0.00  0.00    +0.142 HD
ENDBRANCH  93  94
BRANCH  93  96
ATOM     96  CB  GLN A   1      91.987  94.063 -33.168  0.00  0.00    +0.036 C 
BRANCH  96  97
ATOM     97  CG  GLN A   1      90.846  94.214 -32.167  0.00  0.00    +0.087 C 
BRANCH  97  98
ATOM     98  CD  GLN A   1      90.683  95.641 -31.709  0.00  0.00    +0.219 C 
ATOM     99  NE2 GLN A   1      89.470  95.996 -31.297  0.00  0.00    -0.329 N 
ATOM    100 HE21 GLN A   1      89.300  96.962 -30.951  0.00  0.00    +0.145 HD
ATOM    101 HE22 GLN A   1      88.691  95.308 -31.321  0.00  0.00    +0.145 HD
ATOM    102  OE1 GLN A   1      91.639  96.412 -31.703  0.00  0.00    -0.275 OA
ENDBRANCH  97  98
ENDBRANCH  96  97
ENDBRANCH  93  96
ENDBRANCH  89  93
ENDBRANCH  88  91
BRANCH  88 103
ATOM    103  CB  LEU A   2      93.764  91.798 -38.047  0.00  0.00    +0.029 C 
BRANCH 103 104
ATOM    104  CG  LEU A   2      93.689  90.355 -37.535  0.00  0.00    +0.002 C 
ATOM    105  CD2 LEU A   2      94.990  89.961 -36.851  0.00  0.00    +0.000 C 
ATOM    106  CD1 LEU A   2      93.360  89.394 -38.693  0.00  0.00    +0.000 C 
ENDBRANCH 103 104
ENDBRANCH  88 103
ENDBRANCH  84  88
ENDBRANCH  83  85
BRANCH  83 107
ATOM    107  CB  TRP A   3      95.231  97.387 -37.150  0.00  0.00    +0.057 C 
BRANCH 107 108
ATOM    108  CG  TRP A   3      94.233  97.574 -36.050  0.00  0.00    -0.002 A 
ATOM    109  CD1 TRP A   3      94.140  96.855 -34.890  0.00  0.00    +0.068 A 
ATOM    110  NE1 TRP A   3      93.100  97.320 -34.123  0.00  0.00    -0.352 N 
ATOM    111  HE1 TRP A   3      92.821  96.950 -33.192  0.00  0.00    +0.166 HD
ATOM    112  CE2 TRP A   3      92.490  98.353 -34.788  0.00  0.00    +0.056 A 
ATOM    113  CZ2 TRP A   3      91.399  99.146 -34.414  0.00  0.00    +0.017 A 
ATOM    114  CH2 TRP A   3      90.999 100.115 -35.288  0.00  0.00    +0.001 A 
ATOM    115  CZ3 TRP A   3      91.657 100.317 -36.514  0.00  0.00    +0.000 A 
ATOM    116  CE3 TRP A   3      92.748  99.543 -36.880  0.00  0.00    +0.001 A 
ATOM    117  CD2 TRP A   3      93.176  98.538 -36.009  0.00  0.00    +0.013 A 
ENDBRANCH 107 108
ENDBRANCH  83 107
ENDBRANCH  79  83
ENDBRANCH  78  81
BRANCH  78 118
ATOM    118  CB  VAL A   4      95.989  96.505 -42.748  0.00  0.00    +0.027 C 
ATOM    119  CG2 VAL A   4      96.247  95.033 -42.356  0.00  0.00    +0.002 C 
ATOM    120  CG1 VAL A   4      94.580  96.680 -43.286  0.00  0.00    +0.002 C 
ENDBRANCH  78 118
ENDBRANCH  74  78
ENDBRANCH  73  76
BRANCH  73 121
ATOM    121  CB  ASP A   5      98.387 101.341 -43.393  0.00  0.00    +0.143 C 
BRANCH 121 122
ATOM    122  CG  ASP A   5      98.889 101.764 -42.038  0.00  0.00    +0.367 C 
ATOM    123  OD2 ASP A   5      98.056 102.093 -41.159  0.00  0.00    -0.246 OA
ATOM    124  OD1 ASP A   5     100.122 101.768 -41.859  0.00  0.00    -0.246 OA
ENDBRANCH 121 122
ENDBRANCH  73 121
ENDBRANCH  69  73
ENDBRANCH  68  71
BRANCH  68 125
ATOM    125  CB  SER A   6      97.071  99.699 -47.814  0.00  0.00    +0.166 C 
BRANCH 125 126
ATOM    126  OG  SER A   6      98.304  99.010 -47.711  0.00  0.00    -0.380 OA
ATOM    127  H   SER A   6      98.708  99.190 -46.825  0.00  0.00    +0.211 HD
ENDBRANCH 125 126
ENDBRANCH  68 125
ENDBRANCH  64  68
ENDBRANCH   1  66
BRANCH   1 128
ATOM    128  CB  THR A   7      92.905  96.404 -48.996  0.00  0.00    +0.137 C 
ATOM    129  CG2 THR A   7      92.268  95.047 -49.243  0.00  0.00    +0.034 C 
BRANCH 128 130
ATOM    130  OG1 THR A   7      91.935  97.300 -48.432  0.00  0.00    -0.382 OA
ATOM    131  HG1 THR A   7      91.162  97.376 -49.046  0.00  0.00    +0.210 HD
ENDBRANCH 128 130
ENDBRANCH   1 128
TORSDOF 46
REMARK  Name = ../refined-set-2016/4agn/4agn_pocket.pdb
REMARK  106 active torsions:
REMARK  status: ('A' for Active; 'I' for Inactive)
REMARK    1  A    between atoms: _1  and  _3
REMARK    2  A    between atoms: _3  and  _4
REMARK    3  A    between atoms: _3  and  _6
REMARK    4  A    between atoms: _6  and  _7
REMARK    5  A    between atoms: _12  and  _13
REMARK    6  A    between atoms: _15  and  _17
REMARK    7  A    between atoms: _17  and  _18
REMARK    8  A    between atoms: _17  and  _20
REMARK    9  A    between atoms: _20  and  _21
REMARK   10  A    between atoms: _27  and  _29
REMARK   11  A    between atoms: _29  and  _30
REMARK   12  A    between atoms: _29  and  _32
REMARK   13  A    between atoms: _32  and  _33
REMARK   14  A    between atoms: _33  and  _34
REMARK   15  A    between atoms: _34  and  _35
REMARK   16  A    between atoms: _44  and  _46
REMARK   17  A    between atoms: _46  and  _47
REMARK   18  A    between atoms: _46  and  _49
REMARK   19  A    between atoms: _49  and  _50
REMARK   20  A    between atoms: _50  and  _51
REMARK   21  A    between atoms: _56  and  _58
REMARK   22  A    between atoms: _58  and  _59
REMARK   23  A    between atoms: _58  and  _61
REMARK   24  A    between atoms: _61  and  _62
REMARK   25  A    between atoms: _65  and  _67
REMARK   26  A    between atoms: _67  and  _68
REMARK   27  A    between atoms: _67  and  _70
REMARK   28  A    between atoms: _70  and  _71
REMARK   29  A    between atoms: _81  and  _83
REMARK   30  A    between atoms: _83  and  _84
REMARK   31  A    between atoms: _83  and  _86
REMARK   32  A    between atoms: _89  and  _91
REMARK   33  A    between atoms: _91  and  _92
REMARK   34  A    between atoms: _91  and  _94
REMARK   35  A    between atoms: _94  and  _95
REMARK   36  A    between atoms: _98  and  _100
REMARK   37  A    between atoms: _100  and  _101
REMARK   38  A    between atoms: _100  and  _103
REMARK   39  A    between atoms: _103  and  _104
REMARK   40  A    between atoms: _106  and  _108
REMARK   41  A    between atoms: _108  and  _109
REMARK   42  A    between atoms: _108  and  _111
REMARK   43  A    between atoms: _111  and  _112
REMARK   44  A    between atoms: _116  and  _117
REMARK   45  A    between atoms: _123  and  _124
REMARK   46  A    between atoms: _130  and  _131
REMARK   47  A    between atoms: _136  and  _138
REMARK   48  A    between atoms: _138  and  _139
REMARK   49  A    between atoms: _141  and  _143
REMARK   50  A    between atoms: _143  and  _144
REMARK   51  A    between atoms: _143  and  _146
REMARK   52  A    between atoms: _146  and  _147
REMARK   53  A    between atoms: _150  and  _152
REMARK   54  A    between atoms: _152  and  _153
REMARK   55  A    between atoms: _152  and  _155
REMARK   56  A    between atoms: _155  and  _156
REMARK   57  A    between atoms: _156  and  _157
REMARK   58  A    between atoms: _157  and  _158
REMARK   59  A    between atoms: _167  and  _169
REMARK   60  A    between atoms: _169  and  _170
REMARK   61  A    between atoms: _169  and  _172
REMARK   62  A    between atoms: _175  and  _177
REMARK   63  A    between atoms: _177  and  _178
REMARK   64  A    between atoms: _177  and  _180
REMARK   65  A    between atoms: _180  and  _181
REMARK   66  A    between atoms: _181  and  _182
REMARK   67  A    between atoms: _182  and  _183
REMARK   68  A    between atoms: _193  and  _194
REMARK   69  A    between atoms: _199  and  _201
REMARK   70  A    between atoms: _201  and  _202
REMARK   71  A    between atoms: _201  and  _204
REMARK   72  A    between atoms: _206  and  _208
REMARK   73  A    between atoms: _208  and  _209
REMARK   74  A    between atoms: _208  and  _211
REMARK   75  A    between atoms: _211  and  _212
REMARK   76  A    between atoms: _212  and  _213
REMARK   77  A    between atoms: _217  and  _218
REMARK   78  A    between atoms: _224  and  _225
REMARK   79  A    between atoms: _230  and  _232
REMARK   80  A    between atoms: _232  and  _233
REMARK   81  A    between atoms: _232  and  _235
REMARK   82  A    between atoms: _235  and  _236
REMARK   83  A    between atoms: _236  and  _237
REMARK   84  A    between atoms: _240  and  _242
REMARK   85  A    between atoms: _242  and  _243
REMARK   86  A    between atoms: _242  and  _245
REMARK   87  A    between atoms: _245  and  _246
REMARK   88  A    between atoms: _248  and  _250
REMARK   89  A    between atoms: _250  and  _251
REMARK   90  A    between atoms: _250  and  _253
REMARK   91  A    between atoms: _253  and  _254
REMARK   92  A    between atoms: _257  and  _259
REMARK   93  A    between atoms: _259  and  _260
REMARK   94  A    between atoms: _259  and  _262
REMARK   95  A    between atoms: _264  and  _266
REMARK   96  A    between atoms: _266  and  _267
REMARK   97  A    between atoms: _266  and  _269
REMARK   98  A    between atoms: _269  and  _270
REMARK   99  A    between atoms: _273  and  _275
REMARK  100  A    between atoms: _275  and  _276
REMARK  101  A    between atoms: _275  and  _278
REMARK  102  A    between atoms: _278  and  _279
REMARK  103  A    between atoms: _282  and  _284
REMARK  104  A    between atoms: _284  and  _285
REMARK  105  A    between atoms: _284  and  _287
REMARK  106  A    between atoms: _287  and  _288
REMARK                            x       y       z     vdW  Elec       q    Type
REMARK                         _______ _______ _______ _____ _____    ______ ____
ROOT
ATOM      1  NE  ARG A   1      86.451  81.654 -45.540  0.00  0.00    -0.265 N 
ATOM      2  HE  ARG A   1      86.122  81.747 -44.558  0.00  0.00    +0.259 HD
ATOM      3  CZ  ARG A   1      86.686  82.768 -46.224  0.00  0.00    +0.342 C 
ATOM      4  NH2 ARG A   1      86.500  83.947 -45.646  0.00  0.00    -0.292 N 
ATOM      5 HH21 ARG A   1      86.171  83.997 -44.661  0.00  0.00    +0.255 HD
ATOM      6 HH22 ARG A   1      86.683  84.822 -46.178  0.00  0.00    +0.255 HD
ATOM      7  NH1 ARG A   1      87.111  82.703 -47.482  0.00  0.00    -0.292 N 
ATOM      8 HH11 ARG A   1      87.260  81.778 -47.933  0.00  0.00    +0.255 HD
ATOM      9 HH12 ARG A   1      87.294  83.577 -48.015  0.00  0.00    +0.255 HD
ENDROOT
BRANCH   1  10
ATOM     10  CD  ARG A   1      86.624  80.310 -46.075  0.00  0.00    +0.174 C 
BRANCH  10  11
ATOM     11  CG  ARG A   1      86.534  79.258 -44.983  0.00  0.00    +0.045 C 
BRANCH  11  12
ATOM     12  CB  ARG A   1      87.678  79.374 -43.967  0.00  0.00    +0.029 C 
BRANCH  12  13
ATOM     13  CA  ARG A   1      87.715  78.206 -42.975  0.00  0.00    +0.133 C 
BRANCH  13  14
ATOM     14  N   ARG A   1      86.589  78.264 -42.053  0.00  0.00    -0.239 NA
ATOM     15  H   ARG A   1      86.301  79.177 -41.646  0.00  0.00    +0.142 HD
ENDBRANCH  13  14
BRANCH  13  16
ATOM     16  C   ARG A   1      89.068  78.109 -42.260  0.00  0.00    +0.224 C 
ATOM     17  O   ARG A   1      90.119  78.180 -42.901  0.00  0.00    -0.287 OA
ENDBRANCH  13  16
ENDBRANCH  12  13
ENDBRANCH  11  12
ENDBRANCH  10  11
ENDBRANCH   1  10
TORSDOF 6
REMARK  Name = ../refined-set-2016/4agn/4agn_pocket.pdb
REMARK  106 active torsions:
REMARK  status: ('A' for Active; 'I' for Inactive)
REMARK    1  A    between atoms: _1  and  _3
REMARK    2  A    between atoms: _3  and  _4
REMARK    3  A    between atoms: _3  and  _6
REMARK    4  A    between atoms: _6  and  _7
REMARK    5  A    between atoms: _12  and  _13
REMARK    6  A    between atoms: _15  and  _17
REMARK    7  A    between atoms: _17  and  _18
REMARK    8  A    between atoms: _17  and  _20
REMARK    9  A    between atoms: _20  and  _21
REMARK   10  A    between atoms: _27  and  _29
REMARK   11  A    between atoms: _29  and  _30
REMARK   12  A    between atoms: _29  and  _32
REMARK   13  A    between atoms: _32  and  _33
REMARK   14  A    between atoms: _33  and  _34
REMARK   15  A    between atoms: _34  and  _35
REMARK   16  A    between atoms: _44  and  _46
REMARK   17  A    between atoms: _46  and  _47
REMARK   18  A    between atoms: _46  and  _49
REMARK   19  A    between atoms: _49  and  _50
REMARK   20  A    between atoms: _50  and  _51
REMARK   21  A    between atoms: _56  and  _58
REMARK   22  A    between atoms: _58  and  _59
REMARK   23  A    between atoms: _58  and  _61
REMARK   24  A    between atoms: _61  and  _62
REMARK   25  A    between atoms: _65  and  _67
REMARK   26  A    between atoms: _67  and  _68
REMARK   27  A    between atoms: _67  and  _70
REMARK   28  A    between atoms: _70  and  _71
REMARK   29  A    between atoms: _81  and  _83
REMARK   30  A    between atoms: _83  and  _84
REMARK   31  A    between atoms: _83  and  _86
REMARK   32  A    between atoms: _89  and  _91
REMARK   33  A    between atoms: _91  and  _92
REMARK   34  A    between atoms: _91  and  _94
REMARK   35  A    between atoms: _94  and  _95
REMARK   36  A    between atoms: _98  and  _100
REMARK   37  A    between atoms: _100  and  _101
REMARK   38  A    between atoms: _100  and  _103
REMARK   39  A    between atoms: _103  and  _104
REMARK   40  A    between atoms: _106  and  _108
REMARK   41  A    between atoms: _108  and  _109
REMARK   42  A    between atoms: _108  and  _111
REMARK   43  A    between atoms: _111  and  _112
REMARK   44  A    between atoms: _116  and  _117
REMARK   45  A    between atoms: _123  and  _124
REMARK   46  A    between atoms: _130  and  _131
REMARK   47  A    between atoms: _136  and  _138
REMARK   48  A    between atoms: _138  and  _139
REMARK   49  A    between atoms: _141  and  _143
REMARK   50  A    between atoms: _143  and  _144
REMARK   51  A    between atoms: _143  and  _146
REMARK   52  A    between atoms: _146  and  _147
REMARK   53  A    between atoms: _150  and  _152
REMARK   54  A    between atoms: _152  and  _153
REMARK   55  A    between atoms: _152  and  _155
REMARK   56  A    between atoms: _155  and  _156
REMARK   57  A    between atoms: _156  and  _157
REMARK   58  A    between atoms: _157  and  _158
REMARK   59  A    between atoms: _167  and  _169
REMARK   60  A    between atoms: _169  and  _170
REMARK   61  A    between atoms: _169  and  _172
REMARK   62  A    between atoms: _175  and  _177
REMARK   63  A    between atoms: _177  and  _178
REMARK   64  A    between atoms: _177  and  _180
REMARK   65  A    between atoms: _180  and  _181
REMARK   66  A    between atoms: _181  and  _182
REMARK   67  A    between atoms: _182  and  _183
REMARK   68  A    between atoms: _193  and  _194
REMARK   69  A    between atoms: _199  and  _201
REMARK   70  A    between atoms: _201  and  _202
REMARK   71  A    between atoms: _201  and  _204
REMARK   72  A    between atoms: _206  and  _208
REMARK   73  A    between atoms: _208  and  _209
REMARK   74  A    between atoms: _208  and  _211
REMARK   75  A    between atoms: _211  and  _212
REMARK   76  A    between atoms: _212  and  _213
REMARK   77  A    between atoms: _217  and  _218
REMARK   78  A    between atoms: _224  and  _225
REMARK   79  A    between atoms: _230  and  _232
REMARK   80  A    between atoms: _232  and  _233
REMARK   81  A    between atoms: _232  and  _235
REMARK   82  A    between atoms: _235  and  _236
REMARK   83  A    between atoms: _236  and  _237
REMARK   84  A    between atoms: _240  and  _242
REMARK   85  A    between atoms: _242  and  _243
REMARK   86  A    between atoms: _242  and  _245
REMARK   87  A    between atoms: _245  and  _246
REMARK   88  A    between atoms: _248  and  _250
REMARK   89  A    between atoms: _250  and  _251
REMARK   90  A    between atoms: _250  and  _253
REMARK   91  A    between atoms: _253  and  _254
REMARK   92  A    between atoms: _257  and  _259
REMARK   93  A    between atoms: _259  and  _260
REMARK   94  A    between atoms: _259  and  _262
REMARK   95  A    between atoms: _264  and  _266
REMARK   96  A    between atoms: _266  and  _267
REMARK   97  A    between atoms: _266  and  _269
REMARK   98  A    between atoms: _269  and  _270
REMARK   99  A    between atoms: _273  and  _275
REMARK  100  A    between atoms: _275  and  _276
REMARK  101  A    between atoms: _275  and  _278
REMARK  102  A    between atoms: _278  and  _279
REMARK  103  A    between atoms: _282  and  _284
REMARK  104  A    between atoms: _284  and  _285
REMARK  105  A    between atoms: _284  and  _287
REMARK  106  A    between atoms: _287  and  _288
REMARK                            x       y       z     vdW  Elec       q    Type
REMARK                         _______ _______ _______ _____ _____    ______ ____
ROOT
ATOM      1  C   GLU A   3      88.875  90.735 -43.949  0.00  0.00    +0.244 C 
ATOM      2  O   GLU A   3      89.365  91.112 -42.890  0.00  0.00    -0.273 OA
ATOM      3  N   PRO A   4      88.193  91.555 -44.755  0.00  0.00    -0.272 N 
ATOM      4  CA  PRO A   4      87.940  92.947 -44.374  0.00  0.00    +0.152 C 
ATOM      5  CB  PRO A   4      87.297  93.553 -45.631  0.00  0.00    +0.031 C 
ATOM      6  CG  PRO A   4      87.608  92.602 -46.740  0.00  0.00    +0.024 C 
ATOM      7  CD  PRO A   4      87.726  91.251 -46.117  0.00  0.00    +0.094 C 
ENDROOT
BRANCH   4   8
ATOM      8  C   PRO A   4      86.979  93.035 -43.196  0.00  0.00    +0.244 C 
ATOM      9  N   PRO A   5      86.997  94.168 -42.497  0.00  0.00    -0.272 N 
ATOM     10  CA  PRO A   5      86.114  94.335 -41.339  0.00  0.00    +0.152 C 
ATOM     11  CB  PRO A   5      86.454  95.745 -40.839  0.00  0.00    +0.031 C 
ATOM     12  CG  PRO A   5      87.849  95.994 -41.333  0.00  0.00    +0.024 C 
ATOM     13  CD  PRO A   5      87.962  95.272 -42.640  0.00  0.00    +0.094 C 
ATOM     14  O   PRO A   4      86.246  92.085 -42.900  0.00  0.00    -0.273 OA
BRANCH  10  15
ATOM     15  C   PRO A   5      84.645  94.260 -41.736  0.00  0.00    +0.241 C 
ATOM     16  N   GLU A   6      83.804  93.913 -40.769  0.00  0.00    -0.298 N 
ATOM     17  H   GLU A   6      84.180  93.582 -39.858  0.00  0.00    +0.150 HD
ATOM     18  O   PRO A   5      84.291  94.496 -42.901  0.00  0.00    -0.273 OA
BRANCH  16  19
ATOM     19  CA  GLU A   6      82.369  93.988 -40.964  0.00  0.00    +0.137 C 
BRANCH  19  20
ATOM     20  C   GLU A   6      82.017  95.426 -41.274  0.00  0.00    +0.227 C 
ATOM     21  O   GLU A   6      82.704  96.354 -40.822  0.00  0.00    -0.286 OA
ENDBRANCH  19  20
BRANCH  19  22
ATOM     22  CB  GLU A   6      81.647  93.543 -39.696  0.00  0.00    +0.039 C 
BRANCH  22  23
ATOM     23  CG  GLU A   6      81.984  92.113 -39.293  0.00  0.00    +0.116 C 
BRANCH  23  24
ATOM     24  CD  GLU A   6      81.545  91.118 -40.340  0.00  0.00    +0.365 C 
ATOM     25  OE2 GLU A   6      80.333  91.095 -40.648  0.00  0.00    -0.246 OA
ATOM     26  OE1 GLU A   6      82.406  90.362 -40.859  0.00  0.00    -0.246 OA
ENDBRANCH  23  24
ENDBRANCH  22  23
ENDBRANCH  19  22
ENDBRANCH  16  19
ENDBRANCH  10  15
ENDBRANCH   4   8
BRANCH   1  27
ATOM     27  CA  GLU A   3      89.031  89.292 -44.413  0.00  0.00    +0.149 C 
BRANCH  27  29
ATOM     28  C   CYS A   2      91.179  88.179 -44.672  0.00  0.00    +0.242 C 
ATOM     29  N   GLU A   3      90.249  88.699 -43.879  0.00  0.00    -0.297 N 
ATOM     30  H   GLU A   3      90.395  88.682 -42.849  0.00  0.00    +0.150 HD
ATOM     31  O   CYS A   2      91.071  88.142 -45.903  0.00  0.00    -0.273 OA
BRANCH  28  32
ATOM     32  CA  CYS A   2      92.398  87.574 -43.980  0.00  0.00    +0.160 C 
BRANCH  32  35
ATOM     33  C   PRO A   1      91.728  85.243 -43.874  0.00  0.00    +0.239 C 
ATOM     34  O   PRO A   1      90.989  85.451 -42.908  0.00  0.00    -0.274 OA
ATOM     35  N   CYS A   2      92.492  86.186 -44.407  0.00  0.00    -0.296 N 
ATOM     36  H   CYS A   2      93.175  85.928 -45.148  0.00  0.00    +0.150 HD
BRANCH  33  41
ATOM     37  N   PRO A   1      91.726  82.798 -43.540  0.00  0.00    -0.210 NA
ATOM     38  CD  PRO A   1      90.581  81.902 -43.779  0.00  0.00    +0.089 C 
ATOM     39  CG  PRO A   1      90.237  82.187 -45.231  0.00  0.00    +0.021 C 
ATOM     40  CB  PRO A   1      90.547  83.641 -45.397  0.00  0.00    +0.028 C 
ATOM     41  CA  PRO A   1      91.803  83.869 -44.539  0.00  0.00    +0.149 C 
ENDBRANCH  33  41
ENDBRANCH  32  35
BRANCH  32  42
ATOM     42  CB  CYS A   2      93.668  88.312 -44.380  0.00  0.00    +0.098 C 
ATOM     43  SG  CYS A   2      93.718  90.036 -43.859  0.00  0.00    -0.080 S 
ENDBRANCH  32  42
ENDBRANCH  28  32
ENDBRANCH  27  29
BRANCH  27  44
ATOM     44  CB  GLU A   3      87.805  88.472 -43.992  0.00  0.00    +0.041 C 
BRANCH  44  45
ATOM     45  CG  GLU A   3      87.725  87.089 -44.624  0.00  0.00    +0.116 C 
BRANCH  45  46
ATOM     46  CD  GLU A   3      87.530  87.130 -46.138  0.00  0.00    +0.365 C 
ATOM     47  OE2 GLU A   3      87.446  88.238 -46.715  0.00  0.00    -0.246 OA
ATOM     48  OE1 GLU A   3      87.461  86.046 -46.759  0.00  0.00    -0.246 OA
ENDBRANCH  45  46
ENDBRANCH  44  45
ENDBRANCH  27  44
ENDBRANCH   1  27
TORSDOF 16
REMARK  Name = ../refined-set-2016/4agn/4agn_pocket.pdb
REMARK  106 active torsions:
REMARK  status: ('A' for Active; 'I' for Inactive)
REMARK    1  A    between atoms: _1  and  _3
REMARK    2  A    between atoms: _3  and  _4
REMARK    3  A    between atoms: _3  and  _6
REMARK    4  A    between atoms: _6  and  _7
REMARK    5  A    between atoms: _12  and  _13
REMARK    6  A    between atoms: _15  and  _17
REMARK    7  A    between atoms: _17  and  _18
REMARK    8  A    between atoms: _17  and  _20
REMARK    9  A    between atoms: _20  and  _21
REMARK   10  A    between atoms: _27  and  _29
REMARK   11  A    between atoms: _29  and  _30
REMARK   12  A    between atoms: _29  and  _32
REMARK   13  A    between atoms: _32  and  _33
REMARK   14  A    between atoms: _33  and  _34
REMARK   15  A    between atoms: _34  and  _35
REMARK   16  A    between atoms: _44  and  _46
REMARK   17  A    between atoms: _46  and  _47
REMARK   18  A    between atoms: _46  and  _49
REMARK   19  A    between atoms: _49  and  _50
REMARK   20  A    between atoms: _50  and  _51
REMARK   21  A    between atoms: _56  and  _58
REMARK   22  A    between atoms: _58  and  _59
REMARK   23  A    between atoms: _58  and  _61
REMARK   24  A    between atoms: _61  and  _62
REMARK   25  A    between atoms: _65  and  _67
REMARK   26  A    between atoms: _67  and  _68
REMARK   27  A    between atoms: _67  and  _70
REMARK   28  A    between atoms: _70  and  _71
REMARK   29  A    between atoms: _81  and  _83
REMARK   30  A    between atoms: _83  and  _84
REMARK   31  A    between atoms: _83  and  _86
REMARK   32  A    between atoms: _89  and  _91
REMARK   33  A    between atoms: _91  and  _92
REMARK   34  A    between atoms: _91  and  _94
REMARK   35  A    between atoms: _94  and  _95
REMARK   36  A    between atoms: _98  and  _100
REMARK   37  A    between atoms: _100  and  _101
REMARK   38  A    between atoms: _100  and  _103
REMARK   39  A    between atoms: _103  and  _104
REMARK   40  A    between atoms: _106  and  _108
REMARK   41  A    between atoms: _108  and  _109
REMARK   42  A    between atoms: _108  and  _111
REMARK   43  A    between atoms: _111  and  _112
REMARK   44  A    between atoms: _116  and  _117
REMARK   45  A    between atoms: _123  and  _124
REMARK   46  A    between atoms: _130  and  _131
REMARK   47  A    between atoms: _136  and  _138
REMARK   48  A    between atoms: _138  and  _139
REMARK   49  A    between atoms: _141  and  _143
REMARK   50  A    between atoms: _143  and  _144
REMARK   51  A    between atoms: _143  and  _146
REMARK   52  A    between atoms: _146  and  _147
REMARK   53  A    between atoms: _150  and  _152
REMARK   54  A    between atoms: _152  and  _153
REMARK   55  A    between atoms: _152  and  _155
REMARK   56  A    between atoms: _155  and  _156
REMARK   57  A    between atoms: _156  and  _157
REMARK   58  A    between atoms: _157  and  _158
REMARK   59  A    between atoms: _167  and  _169
REMARK   60  A    between atoms: _169  and  _170
REMARK   61  A    between atoms: _169  and  _172
REMARK   62  A    between atoms: _175  and  _177
REMARK   63  A    between atoms: _177  and  _178
REMARK   64  A    between atoms: _177  and  _180
REMARK   65  A    between atoms: _180  and  _181
REMARK   66  A    between atoms: _181  and  _182
REMARK   67  A    between atoms: _182  and  _183
REMARK   68  A    between atoms: _193  and  _194
REMARK   69  A    between atoms: _199  and  _201
REMARK   70  A    between atoms: _201  and  _202
REMARK   71  A    between atoms: _201  and  _204
REMARK   72  A    between atoms: _206  and  _208
REMARK   73  A    between atoms: _208  and  _209
REMARK   74  A    between atoms: _208  and  _211
REMARK   75  A    between atoms: _211  and  _212
REMARK   76  A    between atoms: _212  and  _213
REMARK   77  A    between atoms: _217  and  _218
REMARK   78  A    between atoms: _224  and  _225
REMARK   79  A    between atoms: _230  and  _232
REMARK   80  A    between atoms: _232  and  _233
REMARK   81  A    between atoms: _232  and  _235
REMARK   82  A    between atoms: _235  and  _236
REMARK   83  A    between atoms: _236  and  _237
REMARK   84  A    between atoms: _240  and  _242
REMARK   85  A    between atoms: _242  and  _243
REMARK   86  A    between atoms: _242  and  _245
REMARK   87  A    between atoms: _245  and  _246
REMARK   88  A    between atoms: _248  and  _250
REMARK   89  A    between atoms: _250  and  _251
REMARK   90  A    between atoms: _250  and  _253
REMARK   91  A    between atoms: _253  and  _254
REMARK   92  A    between atoms: _257  and  _259
REMARK   93  A    between atoms: _259  and  _260
REMARK   94  A    between atoms: _259  and  _262
REMARK   95  A    between atoms: _264  and  _266
REMARK   96  A    between atoms: _266  and  _267
REMARK   97  A    between atoms: _266  and  _269
REMARK   98  A    between atoms: _269  and  _270
REMARK   99  A    between atoms: _273  and  _275
REMARK  100  A    between atoms: _275  and  _276
REMARK  101  A    between atoms: _275  and  _278
REMARK  102  A    between atoms: _278  and  _279
REMARK  103  A    between atoms: _282  and  _284
REMARK  104  A    between atoms: _284  and  _285
REMARK  105  A    between atoms: _284  and  _287
REMARK  106  A    between atoms: _287  and  _288
REMARK                            x       y       z     vdW  Elec       q    Type
REMARK                         _______ _______ _______ _____ _____    ______ ____
ROOT
ATOM      1  CA  CYS A   3      89.474  96.328 -37.961  0.00  0.00    +0.160 C 
ENDROOT
BRANCH   1   3
ATOM      2  C   ASP A   2      88.777  98.546 -38.674  0.00  0.00    +0.241 C 
ATOM      3  N   CYS A   3      88.504  97.413 -38.028  0.00  0.00    -0.296 N 
ATOM      4  H   CYS A   3      87.581  97.301 -37.563  0.00  0.00    +0.150 HD
ATOM      5  O   ASP A   2      89.865  98.762 -39.234  0.00  0.00    -0.273 OA
BRANCH   2   6
ATOM      6  CA  ASP A   2      87.671  99.609 -38.691  0.00  0.00    +0.160 C 
BRANCH   6   8
ATOM      7  C   SER A   1      85.342  98.907 -38.968  0.00  0.00    +0.241 C 
ATOM      8  N   ASP A   2      86.394  99.122 -38.178  0.00  0.00    -0.297 N 
ATOM      9  H   ASP A   2      86.302  98.936 -37.159  0.00  0.00    +0.150 HD
ATOM     10  O   SER A   1      85.383  99.001 -40.195  0.00  0.00    -0.274 OA
BRANCH   7  11
ATOM     11  CA  SER A   1      84.050  98.502 -38.255  0.00  0.00    +0.174 C 
BRANCH  11  12
ATOM     12  N   SER A   1      82.873  98.680 -39.099  0.00  0.00    -0.236 NA
ATOM     13  H   SER A   1      82.681  97.993 -39.856  0.00  0.00    +0.142 HD
ENDBRANCH  11  12
BRANCH  11  14
ATOM     14  CB  SER A   1      84.157  97.049 -37.768  0.00  0.00    +0.163 C 
BRANCH  14  15
ATOM     15  OG  SER A   1      83.093  96.738 -36.874  0.00  0.00    -0.380 OA
ATOM     16  H   SER A   1      83.181  95.799 -36.573  0.00  0.00    +0.211 HD
ENDBRANCH  14  15
ENDBRANCH  11  14
ENDBRANCH   7  11
ENDBRANCH   6   8
BRANCH   6  17
ATOM     17  CB  ASP A   2      88.119 100.833 -37.887  0.00  0.00    +0.143 C 
BRANCH  17  18
ATOM     18  CG  ASP A   2      87.201 102.029 -38.087  0.00  0.00    +0.367 C 
ATOM     19  OD2 ASP A   2      86.908 102.721 -37.092  0.00  0.00    -0.246 OA
ATOM     20  OD1 ASP A   2      86.774 102.260 -39.233  0.00  0.00    -0.246 OA
ENDBRANCH  17  18
ENDBRANCH   6  17
ENDBRANCH   2   6
ENDBRANCH   1   3
BRANCH   1  21
ATOM     21  C   CYS A   3      88.730  95.018 -37.961  0.00  0.00    +0.242 C 
ATOM     22  O   CYS A   3      87.511  94.989 -37.792  0.00  0.00    -0.273 OA
ATOM     23  N   THR A   4      89.478  93.938 -38.158  0.00  0.00    -0.295 N 
ATOM     24  H   THR A   4      90.498  94.056 -38.322  0.00  0.00    +0.150 HD
BRANCH  23  25
ATOM     25  CA  THR A   4      88.918  92.599 -38.152  0.00  0.00    +0.176 C 
BRANCH  25  26
ATOM     26  C   THR A   4      89.324  91.910 -36.863  0.00  0.00    +0.243 C 
ATOM     27  N   THR A   5      88.416  91.121 -36.297  0.00  0.00    -0.296 N 
ATOM     28  H   THR A   5      87.489  90.994 -36.752  0.00  0.00    +0.150 HD
ATOM     29  O   THR A   4      90.441  92.097 -36.379  0.00  0.00    -0.273 OA
BRANCH  27  30
ATOM     30  CA  THR A   5      88.704  90.436 -35.052  0.00  0.00    +0.164 C 
BRANCH  30  31
ATOM     31  C   THR A   5      88.703  88.924 -35.254  0.00  0.00    +0.229 C 
ATOM     32  O   THR A   5      87.771  88.356 -35.836  0.00  0.00    -0.286 OA
ENDBRANCH  30  31
BRANCH  30  33
ATOM     33  CB  THR A   5      87.687  90.824 -33.970  0.00  0.00    +0.136 C 
ATOM     34  CG2 THR A   5      87.946  90.062 -32.683  0.00  0.00    +0.034 C 
BRANCH  33  35
ATOM     35  OG1 THR A   5      87.799  92.227 -33.705  0.00  0.00    -0.382 OA
ATOM     36  HG1 THR A   5      87.614  92.734 -34.535  0.00  0.00    +0.210 HD
ENDBRANCH  33  35
ENDBRANCH  30  33
ENDBRANCH  27  30
ENDBRANCH  25  26
BRANCH  25  37
ATOM     37  CB  THR A   4      89.420  91.815 -39.371  0.00  0.00    +0.137 C 
ATOM     38  CG2 THR A   4      89.024  90.344 -39.291  0.00  0.00    +0.034 C 
BRANCH  37  39
ATOM     39  OG1 THR A   4      88.841  92.390 -40.551  0.00  0.00    -0.382 OA
ATOM     40  HG1 THR A   4      89.156  91.894 -41.347  0.00  0.00    +0.210 HD
ENDBRANCH  37  39
ENDBRANCH  25  37
ENDBRANCH  23  25
ENDBRANCH   1  21
BRANCH   1  41
ATOM     41  CB  CYS A   3      90.313  96.416 -36.680  0.00  0.00    +0.098 C 
ATOM     42  SG  CYS A   3      89.390  96.130 -35.133  0.00  0.00    -0.080 S 
ENDBRANCH   1  41
TORSDOF 19
REMARK  Name = ../refined-set-2016/4agn/4agn_pocket.pdb
REMARK  106 active torsions:
REMARK  status: ('A' for Active; 'I' for Inactive)
REMARK    1  A    between atoms: _1  and  _3
REMARK    2  A    between atoms: _3  and  _4
REMARK    3  A    between atoms: _3  and  _6
REMARK    4  A    between atoms: _6  and  _7
REMARK    5  A    between atoms: _12  and  _13
REMARK    6  A    between atoms: _15  and  _17
REMARK    7  A    between atoms: _17  and  _18
REMARK    8  A    between atoms: _17  and  _20
REMARK    9  A    between atoms: _20  and  _21
REMARK   10  A    between atoms: _27  and  _29
REMARK   11  A    between atoms: _29  and  _30
REMARK   12  A    between atoms: _29  and  _32
REMARK   13  A    between atoms: _32  and  _33
REMARK   14  A    between atoms: _33  and  _34
REMARK   15  A    between atoms: _34  and  _35
REMARK   16  A    between atoms: _44  and  _46
REMARK   17  A    between atoms: _46  and  _47
REMARK   18  A    between atoms: _46  and  _49
REMARK   19  A    between atoms: _49  and  _50
REMARK   20  A    between atoms: _50  and  _51
REMARK   21  A    between atoms: _56  and  _58
REMARK   22  A    between atoms: _58  and  _59
REMARK   23  A    between atoms: _58  and  _61
REMARK   24  A    between atoms: _61  and  _62
REMARK   25  A    between atoms: _65  and  _67
REMARK   26  A    between atoms: _67  and  _68
REMARK   27  A    between atoms: _67  and  _70
REMARK   28  A    between atoms: _70  and  _71
REMARK   29  A    between atoms: _81  and  _83
REMARK   30  A    between atoms: _83  and  _84
REMARK   31  A    between atoms: _83  and  _86
REMARK   32  A    between atoms: _89  and  _91
REMARK   33  A    between atoms: _91  and  _92
REMARK   34  A    between atoms: _91  and  _94
REMARK   35  A    between atoms: _94  and  _95
REMARK   36  A    between atoms: _98  and  _100
REMARK   37  A    between atoms: _100  and  _101
REMARK   38  A    between atoms: _100  and  _103
REMARK   39  A    between atoms: _103  and  _104
REMARK   40  A    between atoms: _106  and  _108
REMARK   41  A    between atoms: _108  and  _109
REMARK   42  A    between atoms: _108  and  _111
REMARK   43  A    between atoms: _111  and  _112
REMARK   44  A    between atoms: _116  and  _117
REMARK   45  A    between atoms: _123  and  _124
REMARK   46  A    between atoms: _130  and  _131
REMARK   47  A    between atoms: _136  and  _138
REMARK   48  A    between atoms: _138  and  _139
REMARK   49  A    between atoms: _141  and  _143
REMARK   50  A    between atoms: _143  and  _144
REMARK   51  A    between atoms: _143  and  _146
REMARK   52  A    between atoms: _146  and  _147
REMARK   53  A    between atoms: _150  and  _152
REMARK   54  A    between atoms: _152  and  _153
REMARK   55  A    between atoms: _152  and  _155
REMARK   56  A    between atoms: _155  and  _156
REMARK   57  A    between atoms: _156  and  _157
REMARK   58  A    between atoms: _157  and  _158
REMARK   59  A    between atoms: _167  and  _169
REMARK   60  A    between atoms: _169  and  _170
REMARK   61  A    between atoms: _169  and  _172
REMARK   62  A    between atoms: _175  and  _177
REMARK   63  A    between atoms: _177  and  _178
REMARK   64  A    between atoms: _177  and  _180
REMARK   65  A    between atoms: _180  and  _181
REMARK   66  A    between atoms: _181  and  _182
REMARK   67  A    between atoms: _182  and  _183
REMARK   68  A    between atoms: _193  and  _194
REMARK   69  A    between atoms: _199  and  _201
REMARK   70  A    between atoms: _201  and  _202
REMARK   71  A    between atoms: _201  and  _204
REMARK   72  A    between atoms: _206  and  _208
REMARK   73  A    between atoms: _208  and  _209
REMARK   74  A    between atoms: _208  and  _211
REMARK   75  A    between atoms: _211  and  _212
REMARK   76  A    between atoms: _212  and  _213
REMARK   77  A    between atoms: _217  and  _218
REMARK   78  A    between atoms: _224  and  _225
REMARK   79  A    between atoms: _230  and  _232
REMARK   80  A    between atoms: _232  and  _233
REMARK   81  A    between atoms: _232  and  _235
REMARK   82  A    between atoms: _235  and  _236
REMARK   83  A    between atoms: _236  and  _237
REMARK   84  A    between atoms: _240  and  _242
REMARK   85  A    between atoms: _242  and  _243
REMARK   86  A    between atoms: _242  and  _245
REMARK   87  A    between atoms: _245  and  _246
REMARK   88  A    between atoms: _248  and  _250
REMARK   89  A    between atoms: _250  and  _251
REMARK   90  A    between atoms: _250  and  _253
REMARK   91  A    between atoms: _253  and  _254
REMARK   92  A    between atoms: _257  and  _259
REMARK   93  A    between atoms: _259  and  _260
REMARK   94  A    between atoms: _259  and  _262
REMARK   95  A    between atoms: _264  and  _266
REMARK   96  A    between atoms: _266  and  _267
REMARK   97  A    between atoms: _266  and  _269
REMARK   98  A    between atoms: _269  and  _270
REMARK   99  A    between atoms: _273  and  _275
REMARK  100  A    between atoms: _275  and  _276
REMARK  101  A    between atoms: _275  and  _278
REMARK  102  A    between atoms: _278  and  _279
REMARK  103  A    between atoms: _282  and  _284
REMARK  104  A    between atoms: _284  and  _285
REMARK  105  A    between atoms: _284  and  _287
REMARK  106  A    between atoms: _287  and  _288
REMARK                            x       y       z     vdW  Elec       q    Type
REMARK                         _______ _______ _______ _____ _____    ______ ____
ROOT
ATOM      1  CA  LEU A   1     100.279  87.844 -42.204  0.00  0.00    +0.133 C 
ENDROOT
BRANCH   1   2
ATOM      2  N   LEU A   1     101.050  87.588 -40.997  0.00  0.00    -0.239 NA
ATOM      3  H   LEU A   1     101.772  88.279 -40.708  0.00  0.00    +0.142 HD
ENDBRANCH   1   2
BRANCH   1   4
ATOM      4  C   LEU A   1     101.078  87.228 -43.353  0.00  0.00    +0.224 C 
ATOM      5  O   LEU A   1     102.281  87.478 -43.475  0.00  0.00    -0.287 OA
ENDBRANCH   1   4
BRANCH   1   6
ATOM      6  CB  LEU A   1     100.118  89.353 -42.394  0.00  0.00    +0.025 C 
BRANCH   6   7
ATOM      7  CG  LEU A   1      99.079  89.783 -43.418  0.00  0.00    +0.002 C 
ATOM      8  CD2 LEU A   1      97.671  89.453 -42.908  0.00  0.00    +0.000 C 
ATOM      9  CD1 LEU A   1      99.230  91.282 -43.743  0.00  0.00    +0.000 C 
ENDBRANCH   6   7
ENDBRANCH   1   6
TORSDOF 4
REMARK  Name = ../refined-set-2016/4agn/4agn_pocket.pdb
REMARK  106 active torsions:
REMARK  status: ('A' for Active; 'I' for Inactive)
REMARK    1  A    between atoms: _1  and  _3
REMARK    2  A    between atoms: _3  and  _4
REMARK    3  A    between atoms: _3  and  _6
REMARK    4  A    between atoms: _6  and  _7
REMARK    5  A    between atoms: _12  and  _13
REMARK    6  A    between atoms: _15  and  _17
REMARK    7  A    between atoms: _17  and  _18
REMARK    8  A    between atoms: _17  and  _20
REMARK    9  A    between atoms: _20  and  _21
REMARK   10  A    between atoms: _27  and  _29
REMARK   11  A    between atoms: _29  and  _30
REMARK   12  A    between atoms: _29  and  _32
REMARK   13  A    between atoms: _32  and  _33
REMARK   14  A    between atoms: _33  and  _34
REMARK   15  A    between atoms: _34  and  _35
REMARK   16  A    between atoms: _44  and  _46
REMARK   17  A    between atoms: _46  and  _47
REMARK   18  A    between atoms: _46  and  _49
REMARK   19  A    between atoms: _49  and  _50
REMARK   20  A    between atoms: _50  and  _51
REMARK   21  A    between atoms: _56  and  _58
REMARK   22  A    between atoms: _58  and  _59
REMARK   23  A    between atoms: _58  and  _61
REMARK   24  A    between atoms: _61  and  _62
REMARK   25  A    between atoms: _65  and  _67
REMARK   26  A    between atoms: _67  and  _68
REMARK   27  A    between atoms: _67  and  _70
REMARK   28  A    between atoms: _70  and  _71
REMARK   29  A    between atoms: _81  and  _83
REMARK   30  A    between atoms: _83  and  _84
REMARK   31  A    between atoms: _83  and  _86
REMARK   32  A    between atoms: _89  and  _91
REMARK   33  A    between atoms: _91  and  _92
REMARK   34  A    between atoms: _91  and  _94
REMARK   35  A    between atoms: _94  and  _95
REMARK   36  A    between atoms: _98  and  _100
REMARK   37  A    between atoms: _100  and  _101
REMARK   38  A    between atoms: _100  and  _103
REMARK   39  A    between atoms: _103  and  _104
REMARK   40  A    between atoms: _106  and  _108
REMARK   41  A    between atoms: _108  and  _109
REMARK   42  A    between atoms: _108  and  _111
REMARK   43  A    between atoms: _111  and  _112
REMARK   44  A    between atoms: _116  and  _117
REMARK   45  A    between atoms: _123  and  _124
REMARK   46  A    between atoms: _130  and  _131
REMARK   47  A    between atoms: _136  and  _138
REMARK   48  A    between atoms: _138  and  _139
REMARK   49  A    between atoms: _141  and  _143
REMARK   50  A    between atoms: _143  and  _144
REMARK   51  A    between atoms: _143  and  _146
REMARK   52  A    between atoms: _146  and  _147
REMARK   53  A    between atoms: _150  and  _152
REMARK   54  A    between atoms: _152  and  _153
REMARK   55  A    between atoms: _152  and  _155
REMARK   56  A    between atoms: _155  and  _156
REMARK   57  A    between atoms: _156  and  _157
REMARK   58  A    between atoms: _157  and  _158
REMARK   59  A    between atoms: _167  and  _169
REMARK   60  A    between atoms: _169  and  _170
REMARK   61  A    between atoms: _169  and  _172
REMARK   62  A    between atoms: _175  and  _177
REMARK   63  A    between atoms: _177  and  _178
REMARK   64  A    between atoms: _177  and  _180
REMARK   65  A    between atoms: _180  and  _181
REMARK   66  A    between atoms: _181  and  _182
REMARK   67  A    between atoms: _182  and  _183
REMARK   68  A    between atoms: _193  and  _194
REMARK   69  A    between atoms: _199  and  _201
REMARK   70  A    between atoms: _201  and  _202
REMARK   71  A    between atoms: _201  and  _204
REMARK   72  A    between atoms: _206  and  _208
REMARK   73  A    between atoms: _208  and  _209
REMARK   74  A    between atoms: _208  and  _211
REMARK   75  A    between atoms: _211  and  _212
REMARK   76  A    between atoms: _212  and  _213
REMARK   77  A    between atoms: _217  and  _218
REMARK   78  A    between atoms: _224  and  _225
REMARK   79  A    between atoms: _230  and  _232
REMARK   80  A    between atoms: _232  and  _233
REMARK   81  A    between atoms: _232  and  _235
REMARK   82  A    between atoms: _235  and  _236
REMARK   83  A    between atoms: _236  and  _237
REMARK   84  A    between atoms: _240  and  _242
REMARK   85  A    between atoms: _242  and  _243
REMARK   86  A    between atoms: _242  and  _245
REMARK   87  A    between atoms: _245  and  _246
REMARK   88  A    between atoms: _248  and  _250
REMARK   89  A    between atoms: _250  and  _251
REMARK   90  A    between atoms: _250  and  _253
REMARK   91  A    between atoms: _253  and  _254
REMARK   92  A    between atoms: _257  and  _259
REMARK   93  A    between atoms: _259  and  _260
REMARK   94  A    between atoms: _259  and  _262
REMARK   95  A    between atoms: _264  and  _266
REMARK   96  A    between atoms: _266  and  _267
REMARK   97  A    between atoms: _266  and  _269
REMARK   98  A    between atoms: _269  and  _270
REMARK   99  A    between atoms: _273  and  _275
REMARK  100  A    between atoms: _275  and  _276
REMARK  101  A    between atoms: _275  and  _278
REMARK  102  A    between atoms: _278  and  _279
REMARK  103  A    between atoms: _282  and  _284
REMARK  104  A    between atoms: _284  and  _285
REMARK  105  A    between atoms: _284  and  _287
REMARK  106  A    between atoms: _287  and  _288
REMARK                            x       y       z     vdW  Elec       q    Type
REMARK                         _______ _______ _______ _____ _____    ______ ____
ROOT
ATOM      1  O   HOH     1     100.259 100.334 -46.213  0.00  0.00    +0.000 OA
ENDROOT
TORSDOF 0
REMARK  Name = ../refined-set-2016/4agn/4agn_pocket.pdb
REMARK  106 active torsions:
REMARK  status: ('A' for Active; 'I' for Inactive)
REMARK    1  A    between atoms: _1  and  _3
REMARK    2  A    between atoms: _3  and  _4
REMARK    3  A    between atoms: _3  and  _6
REMARK    4  A    between atoms: _6  and  _7
REMARK    5  A    between atoms: _12  and  _13
REMARK    6  A    between atoms: _15  and  _17
REMARK    7  A    between atoms: _17  and  _18
REMARK    8  A    between atoms: _17  and  _20
REMARK    9  A    between atoms: _20  and  _21
REMARK   10  A    between atoms: _27  and  _29
REMARK   11  A    between atoms: _29  and  _30
REMARK   12  A    between atoms: _29  and  _32
REMARK   13  A    between atoms: _32  and  _33
REMARK   14  A    between atoms: _33  and  _34
REMARK   15  A    between atoms: _34  and  _35
REMARK   16  A    between atoms: _44  and  _46
REMARK   17  A    between atoms: _46  and  _47
REMARK   18  A    between atoms: _46  and  _49
REMARK   19  A    between atoms: _49  and  _50
REMARK   20  A    between atoms: _50  and  _51
REMARK   21  A    between atoms: _56  and  _58
REMARK   22  A    between atoms: _58  and  _59
REMARK   23  A    between atoms: _58  and  _61
REMARK   24  A    between atoms: _61  and  _62
REMARK   25  A    between atoms: _65  and  _67
REMARK   26  A    between atoms: _67  and  _68
REMARK   27  A    between atoms: _67  and  _70
REMARK   28  A    between atoms: _70  and  _71
REMARK   29  A    between atoms: _81  and  _83
REMARK   30  A    between atoms: _83  and  _84
REMARK   31  A    between atoms: _83  and  _86
REMARK   32  A    between atoms: _89  and  _91
REMARK   33  A    between atoms: _91  and  _92
REMARK   34  A    between atoms: _91  and  _94
REMARK   35  A    between atoms: _94  and  _95
REMARK   36  A    between atoms: _98  and  _100
REMARK   37  A    between atoms: _100  and  _101
REMARK   38  A    between atoms: _100  and  _103
REMARK   39  A    between atoms: _103  and  _104
REMARK   40  A    between atoms: _106  and  _108
REMARK   41  A    between atoms: _108  and  _109
REMARK   42  A    between atoms: _108  and  _111
REMARK   43  A    between atoms: _111  and  _112
REMARK   44  A    between atoms: _116  and  _117
REMARK   45  A    between atoms: _123  and  _124
REMARK   46  A    between atoms: _130  and  _131
REMARK   47  A    between atoms: _136  and  _138
REMARK   48  A    between atoms: _138  and  _139
REMARK   49  A    between atoms: _141  and  _143
REMARK   50  A    between atoms: _143  and  _144
REMARK   51  A    between atoms: _143  and  _146
REMARK   52  A    between atoms: _146  and  _147
REMARK   53  A    between atoms: _150  and  _152
REMARK   54  A    between atoms: _152  and  _153
REMARK   55  A    between atoms: _152  and  _155
REMARK   56  A    between atoms: _155  and  _156
REMARK   57  A    between atoms: _156  and  _157
REMARK   58  A    between atoms: _157  and  _158
REMARK   59  A    between atoms: _167  and  _169
REMARK   60  A    between atoms: _169  and  _170
REMARK   61  A    between atoms: _169  and  _172
REMARK   62  A    between atoms: _175  and  _177
REMARK   63  A    between atoms: _177  and  _178
REMARK   64  A    between atoms: _177  and  _180
REMARK   65  A    between atoms: _180  and  _181
REMARK   66  A    between atoms: _181  and  _182
REMARK   67  A    between atoms: _182  and  _183
REMARK   68  A    between atoms: _193  and  _194
REMARK   69  A    between atoms: _199  and  _201
REMARK   70  A    between atoms: _201  and  _202
REMARK   71  A    between atoms: _201  and  _204
REMARK   72  A    between atoms: _206  and  _208
REMARK   73  A    between atoms: _208  and  _209
REMARK   74  A    between atoms: _208  and  _211
REMARK   75  A    between atoms: _211  and  _212
REMARK   76  A    between atoms: _212  and  _213
REMARK   77  A    between atoms: _217  and  _218
REMARK   78  A    between atoms: _224  and  _225
REMARK   79  A    between atoms: _230  and  _232
REMARK   80  A    between atoms: _232  and  _233
REMARK   81  A    between atoms: _232  and  _235
REMARK   82  A    between atoms: _235  and  _236
REMARK   83  A    between atoms: _236  and  _237
REMARK   84  A    between atoms: _240  and  _242
REMARK   85  A    between atoms: _242  and  _243
REMARK   86  A    between atoms: _242  and  _245
REMARK   87  A    between atoms: _245  and  _246
REMARK   88  A    between atoms: _248  and  _250
REMARK   89  A    between atoms: _250  and  _251
REMARK   90  A    between atoms: _250  and  _253
REMARK   91  A    between atoms: _253  and  _254
REMARK   92  A    between atoms: _257  and  _259
REMARK   93  A    between atoms: _259  and  _260
REMARK   94  A    between atoms: _259  and  _262
REMARK   95  A    between atoms: _264  and  _266
REMARK   96  A    between atoms: _266  and  _267
REMARK   97  A    between atoms: _266  and  _269
REMARK   98  A    between atoms: _269  and  _270
REMARK   99  A    between atoms: _273  and  _275
REMARK  100  A    between atoms: _275  and  _276
REMARK  101  A    between atoms: _275  and  _278
REMARK  102  A    between atoms: _278  and  _279
REMARK  103  A    between atoms: _282  and  _284
REMARK  104  A    between atoms: _284  and  _285
REMARK  105  A    between atoms: _284  and  _287
REMARK  106  A    between atoms: _287  and  _288
REMARK                            x       y       z     vdW  Elec       q    Type
REMARK                         _______ _______ _______ _____ _____    ______ ____
ROOT
ATOM      1  O   HOH     1      95.566 102.523 -39.945  0.00  0.00    +0.000 OA
ENDROOT
TORSDOF 0
REMARK  Name = ../refined-set-2016/4agn/4agn_pocket.pdb
REMARK  106 active torsions:
REMARK  status: ('A' for Active; 'I' for Inactive)
REMARK    1  A    between atoms: _1  and  _3
REMARK    2  A    between atoms: _3  and  _4
REMARK    3  A    between atoms: _3  and  _6
REMARK    4  A    between atoms: _6  and  _7
REMARK    5  A    between atoms: _12  and  _13
REMARK    6  A    between atoms: _15  and  _17
REMARK    7  A    between atoms: _17  and  _18
REMARK    8  A    between atoms: _17  and  _20
REMARK    9  A    between atoms: _20  and  _21
REMARK   10  A    between atoms: _27  and  _29
REMARK   11  A    between atoms: _29  and  _30
REMARK   12  A    between atoms: _29  and  _32
REMARK   13  A    between atoms: _32  and  _33
REMARK   14  A    between atoms: _33  and  _34
REMARK   15  A    between atoms: _34  and  _35
REMARK   16  A    between atoms: _44  and  _46
REMARK   17  A    between atoms: _46  and  _47
REMARK   18  A    between atoms: _46  and  _49
REMARK   19  A    between atoms: _49  and  _50
REMARK   20  A    between atoms: _50  and  _51
REMARK   21  A    between atoms: _56  and  _58
REMARK   22  A    between atoms: _58  and  _59
REMARK   23  A    between atoms: _58  and  _61
REMARK   24  A    between atoms: _61  and  _62
REMARK   25  A    between atoms: _65  and  _67
REMARK   26  A    between atoms: _67  and  _68
REMARK   27  A    between atoms: _67  and  _70
REMARK   28  A    between atoms: _70  and  _71
REMARK   29  A    between atoms: _81  and  _83
REMARK   30  A    between atoms: _83  and  _84
REMARK   31  A    between atoms: _83  and  _86
REMARK   32  A    between atoms: _89  and  _91
REMARK   33  A    between atoms: _91  and  _92
REMARK   34  A    between atoms: _91  and  _94
REMARK   35  A    between atoms: _94  and  _95
REMARK   36  A    between atoms: _98  and  _100
REMARK   37  A    between atoms: _100  and  _101
REMARK   38  A    between atoms: _100  and  _103
REMARK   39  A    between atoms: _103  and  _104
REMARK   40  A    between atoms: _106  and  _108
REMARK   41  A    between atoms: _108  and  _109
REMARK   42  A    between atoms: _108  and  _111
REMARK   43  A    between atoms: _111  and  _112
REMARK   44  A    between atoms: _116  and  _117
REMARK   45  A    between atoms: _123  and  _124
REMARK   46  A    between atoms: _130  and  _131
REMARK   47  A    between atoms: _136  and  _138
REMARK   48  A    between atoms: _138  and  _139
REMARK   49  A    between atoms: _141  and  _143
REMARK   50  A    between atoms: _143  and  _144
REMARK   51  A    between atoms: _143  and  _146
REMARK   52  A    between atoms: _146  and  _147
REMARK   53  A    between atoms: _150  and  _152
REMARK   54  A    between atoms: _152  and  _153
REMARK   55  A    between atoms: _152  and  _155
REMARK   56  A    between atoms: _155  and  _156
REMARK   57  A    between atoms: _156  and  _157
REMARK   58  A    between atoms: _157  and  _158
REMARK   59  A    between atoms: _167  and  _169
REMARK   60  A    between atoms: _169  and  _170
REMARK   61  A    between atoms: _169  and  _172
REMARK   62  A    between atoms: _175  and  _177
REMARK   63  A    between atoms: _177  and  _178
REMARK   64  A    between atoms: _177  and  _180
REMARK   65  A    between atoms: _180  and  _181
REMARK   66  A    between atoms: _181  and  _182
REMARK   67  A    between atoms: _182  and  _183
REMARK   68  A    between atoms: _193  and  _194
REMARK   69  A    between atoms: _199  and  _201
REMARK   70  A    between atoms: _201  and  _202
REMARK   71  A    between atoms: _201  and  _204
REMARK   72  A    between atoms: _206  and  _208
REMARK   73  A    between atoms: _208  and  _209
REMARK   74  A    between atoms: _208  and  _211
REMARK   75  A    between atoms: _211  and  _212
REMARK   76  A    between atoms: _212  and  _213
REMARK   77  A    between atoms: _217  and  _218
REMARK   78  A    between atoms: _224  and  _225
REMARK   79  A    between atoms: _230  and  _232
REMARK   80  A    between atoms: _232  and  _233
REMARK   81  A    between atoms: _232  and  _235
REMARK   82  A    between atoms: _235  and  _236
REMARK   83  A    between atoms: _236  and  _237
REMARK   84  A    between atoms: _240  and  _242
REMARK   85  A    between atoms: _242  and  _243
REMARK   86  A    between atoms: _242  and  _245
REMARK   87  A    between atoms: _245  and  _246
REMARK   88  A    between atoms: _248  and  _250
REMARK   89  A    between atoms: _250  and  _251
REMARK   90  A    between atoms: _250  and  _253
REMARK   91  A    between atoms: _253  and  _254
REMARK   92  A    between atoms: _257  and  _259
REMARK   93  A    between atoms: _259  and  _260
REMARK   94  A    between atoms: _259  and  _262
REMARK   95  A    between atoms: _264  and  _266
REMARK   96  A    between atoms: _266  and  _267
REMARK   97  A    between atoms: _266  and  _269
REMARK   98  A    between atoms: _269  and  _270
REMARK   99  A    between atoms: _273  and  _275
REMARK  100  A    between atoms: _275  and  _276
REMARK  101  A    between atoms: _275  and  _278
REMARK  102  A    between atoms: _278  and  _279
REMARK  103  A    between atoms: _282  and  _284
REMARK  104  A    between atoms: _284  and  _285
REMARK  105  A    between atoms: _284  and  _287
REMARK  106  A    between atoms: _287  and  _288
REMARK                            x       y       z     vdW  Elec       q    Type
REMARK                         _______ _______ _______ _____ _____    ______ ____
ROOT
ATOM      1  O   HOH     1      99.909 102.730 -47.053  0.00  0.00    +0.000 OA
ENDROOT
TORSDOF 0
REMARK  Name = ../refined-set-2016/4agn/4agn_pocket.pdb
REMARK  106 active torsions:
REMARK  status: ('A' for Active; 'I' for Inactive)
REMARK    1  A    between atoms: _1  and  _3
REMARK    2  A    between atoms: _3  and  _4
REMARK    3  A    between atoms: _3  and  _6
REMARK    4  A    between atoms: _6  and  _7
REMARK    5  A    between atoms: _12  and  _13
REMARK    6  A    between atoms: _15  and  _17
REMARK    7  A    between atoms: _17  and  _18
REMARK    8  A    between atoms: _17  and  _20
REMARK    9  A    between atoms: _20  and  _21
REMARK   10  A    between atoms: _27  and  _29
REMARK   11  A    between atoms: _29  and  _30
REMARK   12  A    between atoms: _29  and  _32
REMARK   13  A    between atoms: _32  and  _33
REMARK   14  A    between atoms: _33  and  _34
REMARK   15  A    between atoms: _34  and  _35
REMARK   16  A    between atoms: _44  and  _46
REMARK   17  A    between atoms: _46  and  _47
REMARK   18  A    between atoms: _46  and  _49
REMARK   19  A    between atoms: _49  and  _50
REMARK   20  A    between atoms: _50  and  _51
REMARK   21  A    between atoms: _56  and  _58
REMARK   22  A    between atoms: _58  and  _59
REMARK   23  A    between atoms: _58  and  _61
REMARK   24  A    between atoms: _61  and  _62
REMARK   25  A    between atoms: _65  and  _67
REMARK   26  A    between atoms: _67  and  _68
REMARK   27  A    between atoms: _67  and  _70
REMARK   28  A    between atoms: _70  and  _71
REMARK   29  A    between atoms: _81  and  _83
REMARK   30  A    between atoms: _83  and  _84
REMARK   31  A    between atoms: _83  and  _86
REMARK   32  A    between atoms: _89  and  _91
REMARK   33  A    between atoms: _91  and  _92
REMARK   34  A    between atoms: _91  and  _94
REMARK   35  A    between atoms: _94  and  _95
REMARK   36  A    between atoms: _98  and  _100
REMARK   37  A    between atoms: _100  and  _101
REMARK   38  A    between atoms: _100  and  _103
REMARK   39  A    between atoms: _103  and  _104
REMARK   40  A    between atoms: _106  and  _108
REMARK   41  A    between atoms: _108  and  _109
REMARK   42  A    between atoms: _108  and  _111
REMARK   43  A    between atoms: _111  and  _112
REMARK   44  A    between atoms: _116  and  _117
REMARK   45  A    between atoms: _123  and  _124
REMARK   46  A    between atoms: _130  and  _131
REMARK   47  A    between atoms: _136  and  _138
REMARK   48  A    between atoms: _138  and  _139
REMARK   49  A    between atoms: _141  and  _143
REMARK   50  A    between atoms: _143  and  _144
REMARK   51  A    between atoms: _143  and  _146
REMARK   52  A    between atoms: _146  and  _147
REMARK   53  A    between atoms: _150  and  _152
REMARK   54  A    between atoms: _152  and  _153
REMARK   55  A    between atoms: _152  and  _155
REMARK   56  A    between atoms: _155  and  _156
REMARK   57  A    between atoms: _156  and  _157
REMARK   58  A    between atoms: _157  and  _158
REMARK   59  A    between atoms: _167  and  _169
REMARK   60  A    between atoms: _169  and  _170
REMARK   61  A    between atoms: _169  and  _172
REMARK   62  A    between atoms: _175  and  _177
REMARK   63  A    between atoms: _177  and  _178
REMARK   64  A    between atoms: _177  and  _180
REMARK   65  A    between atoms: _180  and  _181
REMARK   66  A    between atoms: _181  and  _182
REMARK   67  A    between atoms: _182  and  _183
REMARK   68  A    between atoms: _193  and  _194
REMARK   69  A    between atoms: _199  and  _201
REMARK   70  A    between atoms: _201  and  _202
REMARK   71  A    between atoms: _201  and  _204
REMARK   72  A    between atoms: _206  and  _208
REMARK   73  A    between atoms: _208  and  _209
REMARK   74  A    between atoms: _208  and  _211
REMARK   75  A    between atoms: _211  and  _212
REMARK   76  A    between atoms: _212  and  _213
REMARK   77  A    between atoms: _217  and  _218
REMARK   78  A    between atoms: _224  and  _225
REMARK   79  A    between atoms: _230  and  _232
REMARK   80  A    between atoms: _232  and  _233
REMARK   81  A    between atoms: _232  and  _235
REMARK   82  A    between atoms: _235  and  _236
REMARK   83  A    between atoms: _236  and  _237
REMARK   84  A    between atoms: _240  and  _242
REMARK   85  A    between atoms: _242  and  _243
REMARK   86  A    between atoms: _242  and  _245
REMARK   87  A    between atoms: _245  and  _246
REMARK   88  A    between atoms: _248  and  _250
REMARK   89  A    between atoms: _250  and  _251
REMARK   90  A    between atoms: _250  and  _253
REMARK   91  A    between atoms: _253  and  _254
REMARK   92  A    between atoms: _257  and  _259
REMARK   93  A    between atoms: _259  and  _260
REMARK   94  A    between atoms: _259  and  _262
REMARK   95  A    between atoms: _264  and  _266
REMARK   96  A    between atoms: _266  and  _267
REMARK   97  A    between atoms: _266  and  _269
REMARK   98  A    between atoms: _269  and  _270
REMARK   99  A    between atoms: _273  and  _275
REMARK  100  A    between atoms: _275  and  _276
REMARK  101  A    between atoms: _275  and  _278
REMARK  102  A    between atoms: _278  and  _279
REMARK  103  A    between atoms: _282  and  _284
REMARK  104  A    between atoms: _284  and  _285
REMARK  105  A    between atoms: _284  and  _287
REMARK  106  A    between atoms: _287  and  _288
REMARK                            x       y       z     vdW  Elec       q    Type
REMARK                         _______ _______ _______ _____ _____    ______ ____
ROOT
ATOM      1  O   HOH     1      95.427  93.928 -54.039  0.00  0.00    +0.000 OA
ENDROOT
TORSDOF 0
REMARK  Name = ../refined-set-2016/4agn/4agn_pocket.pdb
REMARK  106 active torsions:
REMARK  status: ('A' for Active; 'I' for Inactive)
REMARK    1  A    between atoms: _1  and  _3
REMARK    2  A    between atoms: _3  and  _4
REMARK    3  A    between atoms: _3  and  _6
REMARK    4  A    between atoms: _6  and  _7
REMARK    5  A    between atoms: _12  and  _13
REMARK    6  A    between atoms: _15  and  _17
REMARK    7  A    between atoms: _17  and  _18
REMARK    8  A    between atoms: _17  and  _20
REMARK    9  A    between atoms: _20  and  _21
REMARK   10  A    between atoms: _27  and  _29
REMARK   11  A    between atoms: _29  and  _30
REMARK   12  A    between atoms: _29  and  _32
REMARK   13  A    between atoms: _32  and  _33
REMARK   14  A    between atoms: _33  and  _34
REMARK   15  A    between atoms: _34  and  _35
REMARK   16  A    between atoms: _44  and  _46
REMARK   17  A    between atoms: _46  and  _47
REMARK   18  A    between atoms: _46  and  _49
REMARK   19  A    between atoms: _49  and  _50
REMARK   20  A    between atoms: _50  and  _51
REMARK   21  A    between atoms: _56  and  _58
REMARK   22  A    between atoms: _58  and  _59
REMARK   23  A    between atoms: _58  and  _61
REMARK   24  A    between atoms: _61  and  _62
REMARK   25  A    between atoms: _65  and  _67
REMARK   26  A    between atoms: _67  and  _68
REMARK   27  A    between atoms: _67  and  _70
REMARK   28  A    between atoms: _70  and  _71
REMARK   29  A    between atoms: _81  and  _83
REMARK   30  A    between atoms: _83  and  _84
REMARK   31  A    between atoms: _83  and  _86
REMARK   32  A    between atoms: _89  and  _91
REMARK   33  A    between atoms: _91  and  _92
REMARK   34  A    between atoms: _91  and  _94
REMARK   35  A    between atoms: _94  and  _95
REMARK   36  A    between atoms: _98  and  _100
REMARK   37  A    between atoms: _100  and  _101
REMARK   38  A    between atoms: _100  and  _103
REMARK   39  A    between atoms: _103  and  _104
REMARK   40  A    between atoms: _106  and  _108
REMARK   41  A    between atoms: _108  and  _109
REMARK   42  A    between atoms: _108  and  _111
REMARK   43  A    between atoms: _111  and  _112
REMARK   44  A    between atoms: _116  and  _117
REMARK   45  A    between atoms: _123  and  _124
REMARK   46  A    between atoms: _130  and  _131
REMARK   47  A    between atoms: _136  and  _138
REMARK   48  A    between atoms: _138  and  _139
REMARK   49  A    between atoms: _141  and  _143
REMARK   50  A    between atoms: _143  and  _144
REMARK   51  A    between atoms: _143  and  _146
REMARK   52  A    between atoms: _146  and  _147
REMARK   53  A    between atoms: _150  and  _152
REMARK   54  A    between atoms: _152  and  _153
REMARK   55  A    between atoms: _152  and  _155
REMARK   56  A    between atoms: _155  and  _156
REMARK   57  A    between atoms: _156  and  _157
REMARK   58  A    between atoms: _157  and  _158
REMARK   59  A    between atoms: _167  and  _169
REMARK   60  A    between atoms: _169  and  _170
REMARK   61  A    between atoms: _169  and  _172
REMARK   62  A    between atoms: _175  and  _177
REMARK   63  A    between atoms: _177  and  _178
REMARK   64  A    between atoms: _177  and  _180
REMARK   65  A    between atoms: _180  and  _181
REMARK   66  A    between atoms: _181  and  _182
REMARK   67  A    between atoms: _182  and  _183
REMARK   68  A    between atoms: _193  and  _194
REMARK   69  A    between atoms: _199  and  _201
REMARK   70  A    between atoms: _201  and  _202
REMARK   71  A    between atoms: _201  and  _204
REMARK   72  A    between atoms: _206  and  _208
REMARK   73  A    between atoms: _208  and  _209
REMARK   74  A    between atoms: _208  and  _211
REMARK   75  A    between atoms: _211  and  _212
REMARK   76  A    between atoms: _212  and  _213
REMARK   77  A    between atoms: _217  and  _218
REMARK   78  A    between atoms: _224  and  _225
REMARK   79  A    between atoms: _230  and  _232
REMARK   80  A    between atoms: _232  and  _233
REMARK   81  A    between atoms: _232  and  _235
REMARK   82  A    between atoms: _235  and  _236
REMARK   83  A    between atoms: _236  and  _237
REMARK   84  A    between atoms: _240  and  _242
REMARK   85  A    between atoms: _242  and  _243
REMARK   86  A    between atoms: _242  and  _245
REMARK   87  A    between atoms: _245  and  _246
REMARK   88  A    between atoms: _248  and  _250
REMARK   89  A    between atoms: _250  and  _251
REMARK   90  A    between atoms: _250  and  _253
REMARK   91  A    between atoms: _253  and  _254
REMARK   92  A    between atoms: _257  and  _259
REMARK   93  A    between atoms: _259  and  _260
REMARK   94  A    between atoms: _259  and  _262
REMARK   95  A    between atoms: _264  and  _266
REMARK   96  A    between atoms: _266  and  _267
REMARK   97  A    between atoms: _266  and  _269
REMARK   98  A    between atoms: _269  and  _270
REMARK   99  A    between atoms: _273  and  _275
REMARK  100  A    between atoms: _275  and  _276
REMARK  101  A    between atoms: _275  and  _278
REMARK  102  A    between atoms: _278  and  _279
REMARK  103  A    between atoms: _282  and  _284
REMARK  104  A    between atoms: _284  and  _285
REMARK  105  A    between atoms: _284  and  _287
REMARK  106  A    between atoms: _287  and  _288
REMARK                            x       y       z     vdW  Elec       q    Type
REMARK                         _______ _______ _______ _____ _____    ______ ____
ROOT
ATOM      1  O   HOH     1      92.450  97.986 -40.322  0.00  0.00    +0.000 OA
ENDROOT
TORSDOF 0
REMARK  Name = ../refined-set-2016/4agn/4agn_pocket.pdb
REMARK  106 active torsions:
REMARK  status: ('A' for Active; 'I' for Inactive)
REMARK    1  A    between atoms: _1  and  _3
REMARK    2  A    between atoms: _3  and  _4
REMARK    3  A    between atoms: _3  and  _6
REMARK    4  A    between atoms: _6  and  _7
REMARK    5  A    between atoms: _12  and  _13
REMARK    6  A    between atoms: _15  and  _17
REMARK    7  A    between atoms: _17  and  _18
REMARK    8  A    between atoms: _17  and  _20
REMARK    9  A    between atoms: _20  and  _21
REMARK   10  A    between atoms: _27  and  _29
REMARK   11  A    between atoms: _29  and  _30
REMARK   12  A    between atoms: _29  and  _32
REMARK   13  A    between atoms: _32  and  _33
REMARK   14  A    between atoms: _33  and  _34
REMARK   15  A    between atoms: _34  and  _35
REMARK   16  A    between atoms: _44  and  _46
REMARK   17  A    between atoms: _46  and  _47
REMARK   18  A    between atoms: _46  and  _49
REMARK   19  A    between atoms: _49  and  _50
REMARK   20  A    between atoms: _50  and  _51
REMARK   21  A    between atoms: _56  and  _58
REMARK   22  A    between atoms: _58  and  _59
REMARK   23  A    between atoms: _58  and  _61
REMARK   24  A    between atoms: _61  and  _62
REMARK   25  A    between atoms: _65  and  _67
REMARK   26  A    between atoms: _67  and  _68
REMARK   27  A    between atoms: _67  and  _70
REMARK   28  A    between atoms: _70  and  _71
REMARK   29  A    between atoms: _81  and  _83
REMARK   30  A    between atoms: _83  and  _84
REMARK   31  A    between atoms: _83  and  _86
REMARK   32  A    between atoms: _89  and  _91
REMARK   33  A    between atoms: _91  and  _92
REMARK   34  A    between atoms: _91  and  _94
REMARK   35  A    between atoms: _94  and  _95
REMARK   36  A    between atoms: _98  and  _100
REMARK   37  A    between atoms: _100  and  _101
REMARK   38  A    between atoms: _100  and  _103
REMARK   39  A    between atoms: _103  and  _104
REMARK   40  A    between atoms: _106  and  _108
REMARK   41  A    between atoms: _108  and  _109
REMARK   42  A    between atoms: _108  and  _111
REMARK   43  A    between atoms: _111  and  _112
REMARK   44  A    between atoms: _116  and  _117
REMARK   45  A    between atoms: _123  and  _124
REMARK   46  A    between atoms: _130  and  _131
REMARK   47  A    between atoms: _136  and  _138
REMARK   48  A    between atoms: _138  and  _139
REMARK   49  A    between atoms: _141  and  _143
REMARK   50  A    between atoms: _143  and  _144
REMARK   51  A    between atoms: _143  and  _146
REMARK   52  A    between atoms: _146  and  _147
REMARK   53  A    between atoms: _150  and  _152
REMARK   54  A    between atoms: _152  and  _153
REMARK   55  A    between atoms: _152  and  _155
REMARK   56  A    between atoms: _155  and  _156
REMARK   57  A    between atoms: _156  and  _157
REMARK   58  A    between atoms: _157  and  _158
REMARK   59  A    between atoms: _167  and  _169
REMARK   60  A    between atoms: _169  and  _170
REMARK   61  A    between atoms: _169  and  _172
REMARK   62  A    between atoms: _175  and  _177
REMARK   63  A    between atoms: _177  and  _178
REMARK   64  A    between atoms: _177  and  _180
REMARK   65  A    between atoms: _180  and  _181
REMARK   66  A    between atoms: _181  and  _182
REMARK   67  A    between atoms: _182  and  _183
REMARK   68  A    between atoms: _193  and  _194
REMARK   69  A    between atoms: _199  and  _201
REMARK   70  A    between atoms: _201  and  _202
REMARK   71  A    between atoms: _201  and  _204
REMARK   72  A    between atoms: _206  and  _208
REMARK   73  A    between atoms: _208  and  _209
REMARK   74  A    between atoms: _208  and  _211
REMARK   75  A    between atoms: _211  and  _212
REMARK   76  A    between atoms: _212  and  _213
REMARK   77  A    between atoms: _217  and  _218
REMARK   78  A    between atoms: _224  and  _225
REMARK   79  A    between atoms: _230  and  _232
REMARK   80  A    between atoms: _232  and  _233
REMARK   81  A    between atoms: _232  and  _235
REMARK   82  A    between atoms: _235  and  _236
REMARK   83  A    between atoms: _236  and  _237
REMARK   84  A    between atoms: _240  and  _242
REMARK   85  A    between atoms: _242  and  _243
REMARK   86  A    between atoms: _242  and  _245
REMARK   87  A    between atoms: _245  and  _246
REMARK   88  A    between atoms: _248  and  _250
REMARK   89  A    between atoms: _250  and  _251
REMARK   90  A    between atoms: _250  and  _253
REMARK   91  A    between atoms: _253  and  _254
REMARK   92  A    between atoms: _257  and  _259
REMARK   93  A    between atoms: _259  and  _260
REMARK   94  A    between atoms: _259  and  _262
REMARK   95  A    between atoms: _264  and  _266
REMARK   96  A    between atoms: _266  and  _267
REMARK   97  A    between atoms: _266  and  _269
REMARK   98  A    between atoms: _269  and  _270
REMARK   99  A    between atoms: _273  and  _275
REMARK  100  A    between atoms: _275  and  _276
REMARK  101  A    between atoms: _275  and  _278
REMARK  102  A    between atoms: _278  and  _279
REMARK  103  A    between atoms: _282  and  _284
REMARK  104  A    between atoms: _284  and  _285
REMARK  105  A    between atoms: _284  and  _287
REMARK  106  A    between atoms: _287  and  _288
REMARK                            x       y       z     vdW  Elec       q    Type
REMARK                         _______ _______ _______ _____ _____    ______ ____
ROOT
ATOM      1  O   HOH     1      93.264 101.062 -40.497  0.00  0.00    +0.000 OA
ENDROOT
TORSDOF 0
REMARK  Name = ../refined-set-2016/4agn/4agn_pocket.pdb
REMARK  106 active torsions:
REMARK  status: ('A' for Active; 'I' for Inactive)
REMARK    1  A    between atoms: _1  and  _3
REMARK    2  A    between atoms: _3  and  _4
REMARK    3  A    between atoms: _3  and  _6
REMARK    4  A    between atoms: _6  and  _7
REMARK    5  A    between atoms: _12  and  _13
REMARK    6  A    between atoms: _15  and  _17
REMARK    7  A    between atoms: _17  and  _18
REMARK    8  A    between atoms: _17  and  _20
REMARK    9  A    between atoms: _20  and  _21
REMARK   10  A    between atoms: _27  and  _29
REMARK   11  A    between atoms: _29  and  _30
REMARK   12  A    between atoms: _29  and  _32
REMARK   13  A    between atoms: _32  and  _33
REMARK   14  A    between atoms: _33  and  _34
REMARK   15  A    between atoms: _34  and  _35
REMARK   16  A    between atoms: _44  and  _46
REMARK   17  A    between atoms: _46  and  _47
REMARK   18  A    between atoms: _46  and  _49
REMARK   19  A    between atoms: _49  and  _50
REMARK   20  A    between atoms: _50  and  _51
REMARK   21  A    between atoms: _56  and  _58
REMARK   22  A    between atoms: _58  and  _59
REMARK   23  A    between atoms: _58  and  _61
REMARK   24  A    between atoms: _61  and  _62
REMARK   25  A    between atoms: _65  and  _67
REMARK   26  A    between atoms: _67  and  _68
REMARK   27  A    between atoms: _67  and  _70
REMARK   28  A    between atoms: _70  and  _71
REMARK   29  A    between atoms: _81  and  _83
REMARK   30  A    between atoms: _83  and  _84
REMARK   31  A    between atoms: _83  and  _86
REMARK   32  A    between atoms: _89  and  _91
REMARK   33  A    between atoms: _91  and  _92
REMARK   34  A    between atoms: _91  and  _94
REMARK   35  A    between atoms: _94  and  _95
REMARK   36  A    between atoms: _98  and  _100
REMARK   37  A    between atoms: _100  and  _101
REMARK   38  A    between atoms: _100  and  _103
REMARK   39  A    between atoms: _103  and  _104
REMARK   40  A    between atoms: _106  and  _108
REMARK   41  A    between atoms: _108  and  _109
REMARK   42  A    between atoms: _108  and  _111
REMARK   43  A    between atoms: _111  and  _112
REMARK   44  A    between atoms: _116  and  _117
REMARK   45  A    between atoms: _123  and  _124
REMARK   46  A    between atoms: _130  and  _131
REMARK   47  A    between atoms: _136  and  _138
REMARK   48  A    between atoms: _138  and  _139
REMARK   49  A    between atoms: _141  and  _143
REMARK   50  A    between atoms: _143  and  _144
REMARK   51  A    between atoms: _143  and  _146
REMARK   52  A    between atoms: _146  and  _147
REMARK   53  A    between atoms: _150  and  _152
REMARK   54  A    between atoms: _152  and  _153
REMARK   55  A    between atoms: _152  and  _155
REMARK   56  A    between atoms: _155  and  _156
REMARK   57  A    between atoms: _156  and  _157
REMARK   58  A    between atoms: _157  and  _158
REMARK   59  A    between atoms: _167  and  _169
REMARK   60  A    between atoms: _169  and  _170
REMARK   61  A    between atoms: _169  and  _172
REMARK   62  A    between atoms: _175  and  _177
REMARK   63  A    between atoms: _177  and  _178
REMARK   64  A    between atoms: _177  and  _180
REMARK   65  A    between atoms: _180  and  _181
REMARK   66  A    between atoms: _181  and  _182
REMARK   67  A    between atoms: _182  and  _183
REMARK   68  A    between atoms: _193  and  _194
REMARK   69  A    between atoms: _199  and  _201
REMARK   70  A    between atoms: _201  and  _202
REMARK   71  A    between atoms: _201  and  _204
REMARK   72  A    between atoms: _206  and  _208
REMARK   73  A    between atoms: _208  and  _209
REMARK   74  A    between atoms: _208  and  _211
REMARK   75  A    between atoms: _211  and  _212
REMARK   76  A    between atoms: _212  and  _213
REMARK   77  A    between atoms: _217  and  _218
REMARK   78  A    between atoms: _224  and  _225
REMARK   79  A    between atoms: _230  and  _232
REMARK   80  A    between atoms: _232  and  _233
REMARK   81  A    between atoms: _232  and  _235
REMARK   82  A    between atoms: _235  and  _236
REMARK   83  A    between atoms: _236  and  _237
REMARK   84  A    between atoms: _240  and  _242
REMARK   85  A    between atoms: _242  and  _243
REMARK   86  A    between atoms: _242  and  _245
REMARK   87  A    between atoms: _245  and  _246
REMARK   88  A    between atoms: _248  and  _250
REMARK   89  A    between atoms: _250  and  _251
REMARK   90  A    between atoms: _250  and  _253
REMARK   91  A    between atoms: _253  and  _254
REMARK   92  A    between atoms: _257  and  _259
REMARK   93  A    between atoms: _259  and  _260
REMARK   94  A    between atoms: _259  and  _262
REMARK   95  A    between atoms: _264  and  _266
REMARK   96  A    between atoms: _266  and  _267
REMARK   97  A    between atoms: _266  and  _269
REMARK   98  A    between atoms: _269  and  _270
REMARK   99  A    between atoms: _273  and  _275
REMARK  100  A    between atoms: _275  and  _276
REMARK  101  A    between atoms: _275  and  _278
REMARK  102  A    between atoms: _278  and  _279
REMARK  103  A    between atoms: _282  and  _284
REMARK  104  A    between atoms: _284  and  _285
REMARK  105  A    between atoms: _284  and  _287
REMARK  106  A    between atoms: _287  and  _288
REMARK                            x       y       z     vdW  Elec       q    Type
REMARK                         _______ _______ _______ _____ _____    ______ ____
ROOT
ATOM      1  O   HOH     1      96.916 103.498 -47.179  0.00  0.00    +0.000 OA
ENDROOT
TORSDOF 0
REMARK  Name = ../refined-set-2016/4agn/4agn_pocket.pdb
REMARK  106 active torsions:
REMARK  status: ('A' for Active; 'I' for Inactive)
REMARK    1  A    between atoms: _1  and  _3
REMARK    2  A    between atoms: _3  and  _4
REMARK    3  A    between atoms: _3  and  _6
REMARK    4  A    between atoms: _6  and  _7
REMARK    5  A    between atoms: _12  and  _13
REMARK    6  A    between atoms: _15  and  _17
REMARK    7  A    between atoms: _17  and  _18
REMARK    8  A    between atoms: _17  and  _20
REMARK    9  A    between atoms: _20  and  _21
REMARK   10  A    between atoms: _27  and  _29
REMARK   11  A    between atoms: _29  and  _30
REMARK   12  A    between atoms: _29  and  _32
REMARK   13  A    between atoms: _32  and  _33
REMARK   14  A    between atoms: _33  and  _34
REMARK   15  A    between atoms: _34  and  _35
REMARK   16  A    between atoms: _44  and  _46
REMARK   17  A    between atoms: _46  and  _47
REMARK   18  A    between atoms: _46  and  _49
REMARK   19  A    between atoms: _49  and  _50
REMARK   20  A    between atoms: _50  and  _51
REMARK   21  A    between atoms: _56  and  _58
REMARK   22  A    between atoms: _58  and  _59
REMARK   23  A    between atoms: _58  and  _61
REMARK   24  A    between atoms: _61  and  _62
REMARK   25  A    between atoms: _65  and  _67
REMARK   26  A    between atoms: _67  and  _68
REMARK   27  A    between atoms: _67  and  _70
REMARK   28  A    between atoms: _70  and  _71
REMARK   29  A    between atoms: _81  and  _83
REMARK   30  A    between atoms: _83  and  _84
REMARK   31  A    between atoms: _83  and  _86
REMARK   32  A    between atoms: _89  and  _91
REMARK   33  A    between atoms: _91  and  _92
REMARK   34  A    between atoms: _91  and  _94
REMARK   35  A    between atoms: _94  and  _95
REMARK   36  A    between atoms: _98  and  _100
REMARK   37  A    between atoms: _100  and  _101
REMARK   38  A    between atoms: _100  and  _103
REMARK   39  A    between atoms: _103  and  _104
REMARK   40  A    between atoms: _106  and  _108
REMARK   41  A    between atoms: _108  and  _109
REMARK   42  A    between atoms: _108  and  _111
REMARK   43  A    between atoms: _111  and  _112
REMARK   44  A    between atoms: _116  and  _117
REMARK   45  A    between atoms: _123  and  _124
REMARK   46  A    between atoms: _130  and  _131
REMARK   47  A    between atoms: _136  and  _138
REMARK   48  A    between atoms: _138  and  _139
REMARK   49  A    between atoms: _141  and  _143
REMARK   50  A    between atoms: _143  and  _144
REMARK   51  A    between atoms: _143  and  _146
REMARK   52  A    between atoms: _146  and  _147
REMARK   53  A    between atoms: _150  and  _152
REMARK   54  A    between atoms: _152  and  _153
REMARK   55  A    between atoms: _152  and  _155
REMARK   56  A    between atoms: _155  and  _156
REMARK   57  A    between atoms: _156  and  _157
REMARK   58  A    between atoms: _157  and  _158
REMARK   59  A    between atoms: _167  and  _169
REMARK   60  A    between atoms: _169  and  _170
REMARK   61  A    between atoms: _169  and  _172
REMARK   62  A    between atoms: _175  and  _177
REMARK   63  A    between atoms: _177  and  _178
REMARK   64  A    between atoms: _177  and  _180
REMARK   65  A    between atoms: _180  and  _181
REMARK   66  A    between atoms: _181  and  _182
REMARK   67  A    between atoms: _182  and  _183
REMARK   68  A    between atoms: _193  and  _194
REMARK   69  A    between atoms: _199  and  _201
REMARK   70  A    between atoms: _201  and  _202
REMARK   71  A    between atoms: _201  and  _204
REMARK   72  A    between atoms: _206  and  _208
REMARK   73  A    between atoms: _208  and  _209
REMARK   74  A    between atoms: _208  and  _211
REMARK   75  A    between atoms: _211  and  _212
REMARK   76  A    between atoms: _212  and  _213
REMARK   77  A    between atoms: _217  and  _218
REMARK   78  A    between atoms: _224  and  _225
REMARK   79  A    between atoms: _230  and  _232
REMARK   80  A    between atoms: _232  and  _233
REMARK   81  A    between atoms: _232  and  _235
REMARK   82  A    between atoms: _235  and  _236
REMARK   83  A    between atoms: _236  and  _237
REMARK   84  A    between atoms: _240  and  _242
REMARK   85  A    between atoms: _242  and  _243
REMARK   86  A    between atoms: _242  and  _245
REMARK   87  A    between atoms: _245  and  _246
REMARK   88  A    between atoms: _248  and  _250
REMARK   89  A    between atoms: _250  and  _251
REMARK   90  A    between atoms: _250  and  _253
REMARK   91  A    between atoms: _253  and  _254
REMARK   92  A    between atoms: _257  and  _259
REMARK   93  A    between atoms: _259  and  _260
REMARK   94  A    between atoms: _259  and  _262
REMARK   95  A    between atoms: _264  and  _266
REMARK   96  A    between atoms: _266  and  _267
REMARK   97  A    between atoms: _266  and  _269
REMARK   98  A    between atoms: _269  and  _270
REMARK   99  A    between atoms: _273  and  _275
REMARK  100  A    between atoms: _275  and  _276
REMARK  101  A    between atoms: _275  and  _278
REMARK  102  A    between atoms: _278  and  _279
REMARK  103  A    between atoms: _282  and  _284
REMARK  104  A    between atoms: _284  and  _285
REMARK  105  A    between atoms: _284  and  _287
REMARK  106  A    between atoms: _287  and  _288
REMARK                            x       y       z     vdW  Elec       q    Type
REMARK                         _______ _______ _______ _____ _____    ______ ____
ROOT
ATOM      1  O   HOH     1      99.314 103.944 -39.364  0.00  0.00    +0.000 OA
ENDROOT
TORSDOF 0
REMARK  Name = ../refined-set-2016/4agn/4agn_pocket.pdb
REMARK  106 active torsions:
REMARK  status: ('A' for Active; 'I' for Inactive)
REMARK    1  A    between atoms: _1  and  _3
REMARK    2  A    between atoms: _3  and  _4
REMARK    3  A    between atoms: _3  and  _6
REMARK    4  A    between atoms: _6  and  _7
REMARK    5  A    between atoms: _12  and  _13
REMARK    6  A    between atoms: _15  and  _17
REMARK    7  A    between atoms: _17  and  _18
REMARK    8  A    between atoms: _17  and  _20
REMARK    9  A    between atoms: _20  and  _21
REMARK   10  A    between atoms: _27  and  _29
REMARK   11  A    between atoms: _29  and  _30
REMARK   12  A    between atoms: _29  and  _32
REMARK   13  A    between atoms: _32  and  _33
REMARK   14  A    between atoms: _33  and  _34
REMARK   15  A    between atoms: _34  and  _35
REMARK   16  A    between atoms: _44  and  _46
REMARK   17  A    between atoms: _46  and  _47
REMARK   18  A    between atoms: _46  and  _49
REMARK   19  A    between atoms: _49  and  _50
REMARK   20  A    between atoms: _50  and  _51
REMARK   21  A    between atoms: _56  and  _58
REMARK   22  A    between atoms: _58  and  _59
REMARK   23  A    between atoms: _58  and  _61
REMARK   24  A    between atoms: _61  and  _62
REMARK   25  A    between atoms: _65  and  _67
REMARK   26  A    between atoms: _67  and  _68
REMARK   27  A    between atoms: _67  and  _70
REMARK   28  A    between atoms: _70  and  _71
REMARK   29  A    between atoms: _81  and  _83
REMARK   30  A    between atoms: _83  and  _84
REMARK   31  A    between atoms: _83  and  _86
REMARK   32  A    between atoms: _89  and  _91
REMARK   33  A    between atoms: _91  and  _92
REMARK   34  A    between atoms: _91  and  _94
REMARK   35  A    between atoms: _94  and  _95
REMARK   36  A    between atoms: _98  and  _100
REMARK   37  A    between atoms: _100  and  _101
REMARK   38  A    between atoms: _100  and  _103
REMARK   39  A    between atoms: _103  and  _104
REMARK   40  A    between atoms: _106  and  _108
REMARK   41  A    between atoms: _108  and  _109
REMARK   42  A    between atoms: _108  and  _111
REMARK   43  A    between atoms: _111  and  _112
REMARK   44  A    between atoms: _116  and  _117
REMARK   45  A    between atoms: _123  and  _124
REMARK   46  A    between atoms: _130  and  _131
REMARK   47  A    between atoms: _136  and  _138
REMARK   48  A    between atoms: _138  and  _139
REMARK   49  A    between atoms: _141  and  _143
REMARK   50  A    between atoms: _143  and  _144
REMARK   51  A    between atoms: _143  and  _146
REMARK   52  A    between atoms: _146  and  _147
REMARK   53  A    between atoms: _150  and  _152
REMARK   54  A    between atoms: _152  and  _153
REMARK   55  A    between atoms: _152  and  _155
REMARK   56  A    between atoms: _155  and  _156
REMARK   57  A    between atoms: _156  and  _157
REMARK   58  A    between atoms: _157  and  _158
REMARK   59  A    between atoms: _167  and  _169
REMARK   60  A    between atoms: _169  and  _170
REMARK   61  A    between atoms: _169  and  _172
REMARK   62  A    between atoms: _175  and  _177
REMARK   63  A    between atoms: _177  and  _178
REMARK   64  A    between atoms: _177  and  _180
REMARK   65  A    between atoms: _180  and  _181
REMARK   66  A    between atoms: _181  and  _182
REMARK   67  A    between atoms: _182  and  _183
REMARK   68  A    between atoms: _193  and  _194
REMARK   69  A    between atoms: _199  and  _201
REMARK   70  A    between atoms: _201  and  _202
REMARK   71  A    between atoms: _201  and  _204
REMARK   72  A    between atoms: _206  and  _208
REMARK   73  A    between atoms: _208  and  _209
REMARK   74  A    between atoms: _208  and  _211
REMARK   75  A    between atoms: _211  and  _212
REMARK   76  A    between atoms: _212  and  _213
REMARK   77  A    between atoms: _217  and  _218
REMARK   78  A    between atoms: _224  and  _225
REMARK   79  A    between atoms: _230  and  _232
REMARK   80  A    between atoms: _232  and  _233
REMARK   81  A    between atoms: _232  and  _235
REMARK   82  A    between atoms: _235  and  _236
REMARK   83  A    between atoms: _236  and  _237
REMARK   84  A    between atoms: _240  and  _242
REMARK   85  A    between atoms: _242  and  _243
REMARK   86  A    between atoms: _242  and  _245
REMARK   87  A    between atoms: _245  and  _246
REMARK   88  A    between atoms: _248  and  _250
REMARK   89  A    between atoms: _250  and  _251
REMARK   90  A    between atoms: _250  and  _253
REMARK   91  A    between atoms: _253  and  _254
REMARK   92  A    between atoms: _257  and  _259
REMARK   93  A    between atoms: _259  and  _260
REMARK   94  A    between atoms: _259  and  _262
REMARK   95  A    between atoms: _264  and  _266
REMARK   96  A    between atoms: _266  and  _267
REMARK   97  A    between atoms: _266  and  _269
REMARK   98  A    between atoms: _269  and  _270
REMARK   99  A    between atoms: _273  and  _275
REMARK  100  A    between atoms: _275  and  _276
REMARK  101  A    between atoms: _275  and  _278
REMARK  102  A    between atoms: _278  and  _279
REMARK  103  A    between atoms: _282  and  _284
REMARK  104  A    between atoms: _284  and  _285
REMARK  105  A    between atoms: _284  and  _287
REMARK  106  A    between atoms: _287  and  _288
REMARK                            x       y       z     vdW  Elec       q    Type
REMARK                         _______ _______ _______ _____ _____    ______ ____
ROOT
ATOM      1  O   HOH     1     101.768 101.441 -43.945  0.00  0.00    +0.000 OA
ENDROOT
TORSDOF 0
REMARK  Name = ../refined-set-2016/4agn/4agn_pocket.pdb
REMARK  106 active torsions:
REMARK  status: ('A' for Active; 'I' for Inactive)
REMARK    1  A    between atoms: _1  and  _3
REMARK    2  A    between atoms: _3  and  _4
REMARK    3  A    between atoms: _3  and  _6
REMARK    4  A    between atoms: _6  and  _7
REMARK    5  A    between atoms: _12  and  _13
REMARK    6  A    between atoms: _15  and  _17
REMARK    7  A    between atoms: _17  and  _18
REMARK    8  A    between atoms: _17  and  _20
REMARK    9  A    between atoms: _20  and  _21
REMARK   10  A    between atoms: _27  and  _29
REMARK   11  A    between atoms: _29  and  _30
REMARK   12  A    between atoms: _29  and  _32
REMARK   13  A    between atoms: _32  and  _33
REMARK   14  A    between atoms: _33  and  _34
REMARK   15  A    between atoms: _34  and  _35
REMARK   16  A    between atoms: _44  and  _46
REMARK   17  A    between atoms: _46  and  _47
REMARK   18  A    between atoms: _46  and  _49
REMARK   19  A    between atoms: _49  and  _50
REMARK   20  A    between atoms: _50  and  _51
REMARK   21  A    between atoms: _56  and  _58
REMARK   22  A    between atoms: _58  and  _59
REMARK   23  A    between atoms: _58  and  _61
REMARK   24  A    between atoms: _61  and  _62
REMARK   25  A    between atoms: _65  and  _67
REMARK   26  A    between atoms: _67  and  _68
REMARK   27  A    between atoms: _67  and  _70
REMARK   28  A    between atoms: _70  and  _71
REMARK   29  A    between atoms: _81  and  _83
REMARK   30  A    between atoms: _83  and  _84
REMARK   31  A    between atoms: _83  and  _86
REMARK   32  A    between atoms: _89  and  _91
REMARK   33  A    between atoms: _91  and  _92
REMARK   34  A    between atoms: _91  and  _94
REMARK   35  A    between atoms: _94  and  _95
REMARK   36  A    between atoms: _98  and  _100
REMARK   37  A    between atoms: _100  and  _101
REMARK   38  A    between atoms: _100  and  _103
REMARK   39  A    between atoms: _103  and  _104
REMARK   40  A    between atoms: _106  and  _108
REMARK   41  A    between atoms: _108  and  _109
REMARK   42  A    between atoms: _108  and  _111
REMARK   43  A    between atoms: _111  and  _112
REMARK   44  A    between atoms: _116  and  _117
REMARK   45  A    between atoms: _123  and  _124
REMARK   46  A    between atoms: _130  and  _131
REMARK   47  A    between atoms: _136  and  _138
REMARK   48  A    between atoms: _138  and  _139
REMARK   49  A    between atoms: _141  and  _143
REMARK   50  A    between atoms: _143  and  _144
REMARK   51  A    between atoms: _143  and  _146
REMARK   52  A    between atoms: _146  and  _147
REMARK   53  A    between atoms: _150  and  _152
REMARK   54  A    between atoms: _152  and  _153
REMARK   55  A    between atoms: _152  and  _155
REMARK   56  A    between atoms: _155  and  _156
REMARK   57  A    between atoms: _156  and  _157
REMARK   58  A    between atoms: _157  and  _158
REMARK   59  A    between atoms: _167  and  _169
REMARK   60  A    between atoms: _169  and  _170
REMARK   61  A    between atoms: _169  and  _172
REMARK   62  A    between atoms: _175  and  _177
REMARK   63  A    between atoms: _177  and  _178
REMARK   64  A    between atoms: _177  and  _180
REMARK   65  A    between atoms: _180  and  _181
REMARK   66  A    between atoms: _181  and  _182
REMARK   67  A    between atoms: _182  and  _183
REMARK   68  A    between atoms: _193  and  _194
REMARK   69  A    between atoms: _199  and  _201
REMARK   70  A    between atoms: _201  and  _202
REMARK   71  A    between atoms: _201  and  _204
REMARK   72  A    between atoms: _206  and  _208
REMARK   73  A    between atoms: _208  and  _209
REMARK   74  A    between atoms: _208  and  _211
REMARK   75  A    between atoms: _211  and  _212
REMARK   76  A    between atoms: _212  and  _213
REMARK   77  A    between atoms: _217  and  _218
REMARK   78  A    between atoms: _224  and  _225
REMARK   79  A    between atoms: _230  and  _232
REMARK   80  A    between atoms: _232  and  _233
REMARK   81  A    between atoms: _232  and  _235
REMARK   82  A    between atoms: _235  and  _236
REMARK   83  A    between atoms: _236  and  _237
REMARK   84  A    between atoms: _240  and  _242
REMARK   85  A    between atoms: _242  and  _243
REMARK   86  A    between atoms: _242  and  _245
REMARK   87  A    between atoms: _245  and  _246
REMARK   88  A    between atoms: _248  and  _250
REMARK   89  A    between atoms: _250  and  _251
REMARK   90  A    between atoms: _250  and  _253
REMARK   91  A    between atoms: _253  and  _254
REMARK   92  A    between atoms: _257  and  _259
REMARK   93  A    between atoms: _259  and  _260
REMARK   94  A    between atoms: _259  and  _262
REMARK   95  A    between atoms: _264  and  _266
REMARK   96  A    between atoms: _266  and  _267
REMARK   97  A    between atoms: _266  and  _269
REMARK   98  A    between atoms: _269  and  _270
REMARK   99  A    between atoms: _273  and  _275
REMARK  100  A    between atoms: _275  and  _276
REMARK  101  A    between atoms: _275  and  _278
REMARK  102  A    between atoms: _278  and  _279
REMARK  103  A    between atoms: _282  and  _284
REMARK  104  A    between atoms: _284  and  _285
REMARK  105  A    between atoms: _284  and  _287
REMARK  106  A    between atoms: _287  and  _288
REMARK                            x       y       z     vdW  Elec       q    Type
REMARK                         _______ _______ _______ _____ _____    ______ ____
ROOT
ATOM      1  O   HOH     1      99.873 105.958 -40.854  0.00  0.00    +0.000 OA
ENDROOT
TORSDOF 0
REMARK  Name = ../refined-set-2016/4agn/4agn_pocket.pdb
REMARK  106 active torsions:
REMARK  status: ('A' for Active; 'I' for Inactive)
REMARK    1  A    between atoms: _1  and  _3
REMARK    2  A    between atoms: _3  and  _4
REMARK    3  A    between atoms: _3  and  _6
REMARK    4  A    between atoms: _6  and  _7
REMARK    5  A    between atoms: _12  and  _13
REMARK    6  A    between atoms: _15  and  _17
REMARK    7  A    between atoms: _17  and  _18
REMARK    8  A    between atoms: _17  and  _20
REMARK    9  A    between atoms: _20  and  _21
REMARK   10  A    between atoms: _27  and  _29
REMARK   11  A    between atoms: _29  and  _30
REMARK   12  A    between atoms: _29  and  _32
REMARK   13  A    between atoms: _32  and  _33
REMARK   14  A    between atoms: _33  and  _34
REMARK   15  A    between atoms: _34  and  _35
REMARK   16  A    between atoms: _44  and  _46
REMARK   17  A    between atoms: _46  and  _47
REMARK   18  A    between atoms: _46  and  _49
REMARK   19  A    between atoms: _49  and  _50
REMARK   20  A    between atoms: _50  and  _51
REMARK   21  A    between atoms: _56  and  _58
REMARK   22  A    between atoms: _58  and  _59
REMARK   23  A    between atoms: _58  and  _61
REMARK   24  A    between atoms: _61  and  _62
REMARK   25  A    between atoms: _65  and  _67
REMARK   26  A    between atoms: _67  and  _68
REMARK   27  A    between atoms: _67  and  _70
REMARK   28  A    between atoms: _70  and  _71
REMARK   29  A    between atoms: _81  and  _83
REMARK   30  A    between atoms: _83  and  _84
REMARK   31  A    between atoms: _83  and  _86
REMARK   32  A    between atoms: _89  and  _91
REMARK   33  A    between atoms: _91  and  _92
REMARK   34  A    between atoms: _91  and  _94
REMARK   35  A    between atoms: _94  and  _95
REMARK   36  A    between atoms: _98  and  _100
REMARK   37  A    between atoms: _100  and  _101
REMARK   38  A    between atoms: _100  and  _103
REMARK   39  A    between atoms: _103  and  _104
REMARK   40  A    between atoms: _106  and  _108
REMARK   41  A    between atoms: _108  and  _109
REMARK   42  A    between atoms: _108  and  _111
REMARK   43  A    between atoms: _111  and  _112
REMARK   44  A    between atoms: _116  and  _117
REMARK   45  A    between atoms: _123  and  _124
REMARK   46  A    between atoms: _130  and  _131
REMARK   47  A    between atoms: _136  and  _138
REMARK   48  A    between atoms: _138  and  _139
REMARK   49  A    between atoms: _141  and  _143
REMARK   50  A    between atoms: _143  and  _144
REMARK   51  A    between atoms: _143  and  _146
REMARK   52  A    between atoms: _146  and  _147
REMARK   53  A    between atoms: _150  and  _152
REMARK   54  A    between atoms: _152  and  _153
REMARK   55  A    between atoms: _152  and  _155
REMARK   56  A    between atoms: _155  and  _156
REMARK   57  A    between atoms: _156  and  _157
REMARK   58  A    between atoms: _157  and  _158
REMARK   59  A    between atoms: _167  and  _169
REMARK   60  A    between atoms: _169  and  _170
REMARK   61  A    between atoms: _169  and  _172
REMARK   62  A    between atoms: _175  and  _177
REMARK   63  A    between atoms: _177  and  _178
REMARK   64  A    between atoms: _177  and  _180
REMARK   65  A    between atoms: _180  and  _181
REMARK   66  A    between atoms: _181  and  _182
REMARK   67  A    between atoms: _182  and  _183
REMARK   68  A    between atoms: _193  and  _194
REMARK   69  A    between atoms: _199  and  _201
REMARK   70  A    between atoms: _201  and  _202
REMARK   71  A    between atoms: _201  and  _204
REMARK   72  A    between atoms: _206  and  _208
REMARK   73  A    between atoms: _208  and  _209
REMARK   74  A    between atoms: _208  and  _211
REMARK   75  A    between atoms: _211  and  _212
REMARK   76  A    between atoms: _212  and  _213
REMARK   77  A    between atoms: _217  and  _218
REMARK   78  A    between atoms: _224  and  _225
REMARK   79  A    between atoms: _230  and  _232
REMARK   80  A    between atoms: _232  and  _233
REMARK   81  A    between atoms: _232  and  _235
REMARK   82  A    between atoms: _235  and  _236
REMARK   83  A    between atoms: _236  and  _237
REMARK   84  A    between atoms: _240  and  _242
REMARK   85  A    between atoms: _242  and  _243
REMARK   86  A    between atoms: _242  and  _245
REMARK   87  A    between atoms: _245  and  _246
REMARK   88  A    between atoms: _248  and  _250
REMARK   89  A    between atoms: _250  and  _251
REMARK   90  A    between atoms: _250  and  _253
REMARK   91  A    between atoms: _253  and  _254
REMARK   92  A    between atoms: _257  and  _259
REMARK   93  A    between atoms: _259  and  _260
REMARK   94  A    between atoms: _259  and  _262
REMARK   95  A    between atoms: _264  and  _266
REMARK   96  A    between atoms: _266  and  _267
REMARK   97  A    between atoms: _266  and  _269
REMARK   98  A    between atoms: _269  and  _270
REMARK   99  A    between atoms: _273  and  _275
REMARK  100  A    between atoms: _275  and  _276
REMARK  101  A    between atoms: _275  and  _278
REMARK  102  A    between atoms: _278  and  _279
REMARK  103  A    between atoms: _282  and  _284
REMARK  104  A    between atoms: _284  and  _285
REMARK  105  A    between atoms: _284  and  _287
REMARK  106  A    between atoms: _287  and  _288
REMARK                            x       y       z     vdW  Elec       q    Type
REMARK                         _______ _______ _______ _____ _____    ______ ____
ROOT
ATOM      1  O   HOH     1      96.276  97.876 -50.927  0.00  0.00    +0.000 OA
ENDROOT
TORSDOF 0
REMARK  Name = ../refined-set-2016/4agn/4agn_pocket.pdb
REMARK  106 active torsions:
REMARK  status: ('A' for Active; 'I' for Inactive)
REMARK    1  A    between atoms: _1  and  _3
REMARK    2  A    between atoms: _3  and  _4
REMARK    3  A    between atoms: _3  and  _6
REMARK    4  A    between atoms: _6  and  _7
REMARK    5  A    between atoms: _12  and  _13
REMARK    6  A    between atoms: _15  and  _17
REMARK    7  A    between atoms: _17  and  _18
REMARK    8  A    between atoms: _17  and  _20
REMARK    9  A    between atoms: _20  and  _21
REMARK   10  A    between atoms: _27  and  _29
REMARK   11  A    between atoms: _29  and  _30
REMARK   12  A    between atoms: _29  and  _32
REMARK   13  A    between atoms: _32  and  _33
REMARK   14  A    between atoms: _33  and  _34
REMARK   15  A    between atoms: _34  and  _35
REMARK   16  A    between atoms: _44  and  _46
REMARK   17  A    between atoms: _46  and  _47
REMARK   18  A    between atoms: _46  and  _49
REMARK   19  A    between atoms: _49  and  _50
REMARK   20  A    between atoms: _50  and  _51
REMARK   21  A    between atoms: _56  and  _58
REMARK   22  A    between atoms: _58  and  _59
REMARK   23  A    between atoms: _58  and  _61
REMARK   24  A    between atoms: _61  and  _62
REMARK   25  A    between atoms: _65  and  _67
REMARK   26  A    between atoms: _67  and  _68
REMARK   27  A    between atoms: _67  and  _70
REMARK   28  A    between atoms: _70  and  _71
REMARK   29  A    between atoms: _81  and  _83
REMARK   30  A    between atoms: _83  and  _84
REMARK   31  A    between atoms: _83  and  _86
REMARK   32  A    between atoms: _89  and  _91
REMARK   33  A    between atoms: _91  and  _92
REMARK   34  A    between atoms: _91  and  _94
REMARK   35  A    between atoms: _94  and  _95
REMARK   36  A    between atoms: _98  and  _100
REMARK   37  A    between atoms: _100  and  _101
REMARK   38  A    between atoms: _100  and  _103
REMARK   39  A    between atoms: _103  and  _104
REMARK   40  A    between atoms: _106  and  _108
REMARK   41  A    between atoms: _108  and  _109
REMARK   42  A    between atoms: _108  and  _111
REMARK   43  A    between atoms: _111  and  _112
REMARK   44  A    between atoms: _116  and  _117
REMARK   45  A    between atoms: _123  and  _124
REMARK   46  A    between atoms: _130  and  _131
REMARK   47  A    between atoms: _136  and  _138
REMARK   48  A    between atoms: _138  and  _139
REMARK   49  A    between atoms: _141  and  _143
REMARK   50  A    between atoms: _143  and  _144
REMARK   51  A    between atoms: _143  and  _146
REMARK   52  A    between atoms: _146  and  _147
REMARK   53  A    between atoms: _150  and  _152
REMARK   54  A    between atoms: _152  and  _153
REMARK   55  A    between atoms: _152  and  _155
REMARK   56  A    between atoms: _155  and  _156
REMARK   57  A    between atoms: _156  and  _157
REMARK   58  A    between atoms: _157  and  _158
REMARK   59  A    between atoms: _167  and  _169
REMARK   60  A    between atoms: _169  and  _170
REMARK   61  A    between atoms: _169  and  _172
REMARK   62  A    between atoms: _175  and  _177
REMARK   63  A    between atoms: _177  and  _178
REMARK   64  A    between atoms: _177  and  _180
REMARK   65  A    between atoms: _180  and  _181
REMARK   66  A    between atoms: _181  and  _182
REMARK   67  A    between atoms: _182  and  _183
REMARK   68  A    between atoms: _193  and  _194
REMARK   69  A    between atoms: _199  and  _201
REMARK   70  A    between atoms: _201  and  _202
REMARK   71  A    between atoms: _201  and  _204
REMARK   72  A    between atoms: _206  and  _208
REMARK   73  A    between atoms: _208  and  _209
REMARK   74  A    between atoms: _208  and  _211
REMARK   75  A    between atoms: _211  and  _212
REMARK   76  A    between atoms: _212  and  _213
REMARK   77  A    between atoms: _217  and  _218
REMARK   78  A    between atoms: _224  and  _225
REMARK   79  A    between atoms: _230  and  _232
REMARK   80  A    between atoms: _232  and  _233
REMARK   81  A    between atoms: _232  and  _235
REMARK   82  A    between atoms: _235  and  _236
REMARK   83  A    between atoms: _236  and  _237
REMARK   84  A    between atoms: _240  and  _242
REMARK   85  A    between atoms: _242  and  _243
REMARK   86  A    between atoms: _242  and  _245
REMARK   87  A    between atoms: _245  and  _246
REMARK   88  A    between atoms: _248  and  _250
REMARK   89  A    between atoms: _250  and  _251
REMARK   90  A    between atoms: _250  and  _253
REMARK   91  A    between atoms: _253  and  _254
REMARK   92  A    between atoms: _257  and  _259
REMARK   93  A    between atoms: _259  and  _260
REMARK   94  A    between atoms: _259  and  _262
REMARK   95  A    between atoms: _264  and  _266
REMARK   96  A    between atoms: _266  and  _267
REMARK   97  A    between atoms: _266  and  _269
REMARK   98  A    between atoms: _269  and  _270
REMARK   99  A    between atoms: _273  and  _275
REMARK  100  A    between atoms: _275  and  _276
REMARK  101  A    between atoms: _275  and  _278
REMARK  102  A    between atoms: _278  and  _279
REMARK  103  A    between atoms: _282  and  _284
REMARK  104  A    between atoms: _284  and  _285
REMARK  105  A    between atoms: _284  and  _287
REMARK  106  A    between atoms: _287  and  _288
REMARK                            x       y       z     vdW  Elec       q    Type
REMARK                         _______ _______ _______ _____ _____    ______ ____
ROOT
ATOM      1  O   HOH     1      93.172 100.290 -48.702  0.00  0.00    +0.000 OA
ENDROOT
TORSDOF 0
REMARK  Name = ../refined-set-2016/4agn/4agn_pocket.pdb
REMARK  106 active torsions:
REMARK  status: ('A' for Active; 'I' for Inactive)
REMARK    1  A    between atoms: _1  and  _3
REMARK    2  A    between atoms: _3  and  _4
REMARK    3  A    between atoms: _3  and  _6
REMARK    4  A    between atoms: _6  and  _7
REMARK    5  A    between atoms: _12  and  _13
REMARK    6  A    between atoms: _15  and  _17
REMARK    7  A    between atoms: _17  and  _18
REMARK    8  A    between atoms: _17  and  _20
REMARK    9  A    between atoms: _20  and  _21
REMARK   10  A    between atoms: _27  and  _29
REMARK   11  A    between atoms: _29  and  _30
REMARK   12  A    between atoms: _29  and  _32
REMARK   13  A    between atoms: _32  and  _33
REMARK   14  A    between atoms: _33  and  _34
REMARK   15  A    between atoms: _34  and  _35
REMARK   16  A    between atoms: _44  and  _46
REMARK   17  A    between atoms: _46  and  _47
REMARK   18  A    between atoms: _46  and  _49
REMARK   19  A    between atoms: _49  and  _50
REMARK   20  A    between atoms: _50  and  _51
REMARK   21  A    between atoms: _56  and  _58
REMARK   22  A    between atoms: _58  and  _59
REMARK   23  A    between atoms: _58  and  _61
REMARK   24  A    between atoms: _61  and  _62
REMARK   25  A    between atoms: _65  and  _67
REMARK   26  A    between atoms: _67  and  _68
REMARK   27  A    between atoms: _67  and  _70
REMARK   28  A    between atoms: _70  and  _71
REMARK   29  A    between atoms: _81  and  _83
REMARK   30  A    between atoms: _83  and  _84
REMARK   31  A    between atoms: _83  and  _86
REMARK   32  A    between atoms: _89  and  _91
REMARK   33  A    between atoms: _91  and  _92
REMARK   34  A    between atoms: _91  and  _94
REMARK   35  A    between atoms: _94  and  _95
REMARK   36  A    between atoms: _98  and  _100
REMARK   37  A    between atoms: _100  and  _101
REMARK   38  A    between atoms: _100  and  _103
REMARK   39  A    between atoms: _103  and  _104
REMARK   40  A    between atoms: _106  and  _108
REMARK   41  A    between atoms: _108  and  _109
REMARK   42  A    between atoms: _108  and  _111
REMARK   43  A    between atoms: _111  and  _112
REMARK   44  A    between atoms: _116  and  _117
REMARK   45  A    between atoms: _123  and  _124
REMARK   46  A    between atoms: _130  and  _131
REMARK   47  A    between atoms: _136  and  _138
REMARK   48  A    between atoms: _138  and  _139
REMARK   49  A    between atoms: _141  and  _143
REMARK   50  A    between atoms: _143  and  _144
REMARK   51  A    between atoms: _143  and  _146
REMARK   52  A    between atoms: _146  and  _147
REMARK   53  A    between atoms: _150  and  _152
REMARK   54  A    between atoms: _152  and  _153
REMARK   55  A    between atoms: _152  and  _155
REMARK   56  A    between atoms: _155  and  _156
REMARK   57  A    between atoms: _156  and  _157
REMARK   58  A    between atoms: _157  and  _158
REMARK   59  A    between atoms: _167  and  _169
REMARK   60  A    between atoms: _169  and  _170
REMARK   61  A    between atoms: _169  and  _172
REMARK   62  A    between atoms: _175  and  _177
REMARK   63  A    between atoms: _177  and  _178
REMARK   64  A    between atoms: _177  and  _180
REMARK   65  A    between atoms: _180  and  _181
REMARK   66  A    between atoms: _181  and  _182
REMARK   67  A    between atoms: _182  and  _183
REMARK   68  A    between atoms: _193  and  _194
REMARK   69  A    between atoms: _199  and  _201
REMARK   70  A    between atoms: _201  and  _202
REMARK   71  A    between atoms: _201  and  _204
REMARK   72  A    between atoms: _206  and  _208
REMARK   73  A    between atoms: _208  and  _209
REMARK   74  A    between atoms: _208  and  _211
REMARK   75  A    between atoms: _211  and  _212
REMARK   76  A    between atoms: _212  and  _213
REMARK   77  A    between atoms: _217  and  _218
REMARK   78  A    between atoms: _224  and  _225
REMARK   79  A    between atoms: _230  and  _232
REMARK   80  A    between atoms: _232  and  _233
REMARK   81  A    between atoms: _232  and  _235
REMARK   82  A    between atoms: _235  and  _236
REMARK   83  A    between atoms: _236  and  _237
REMARK   84  A    between atoms: _240  and  _242
REMARK   85  A    between atoms: _242  and  _243
REMARK   86  A    between atoms: _242  and  _245
REMARK   87  A    between atoms: _245  and  _246
REMARK   88  A    between atoms: _248  and  _250
REMARK   89  A    between atoms: _250  and  _251
REMARK   90  A    between atoms: _250  and  _253
REMARK   91  A    between atoms: _253  and  _254
REMARK   92  A    between atoms: _257  and  _259
REMARK   93  A    between atoms: _259  and  _260
REMARK   94  A    between atoms: _259  and  _262
REMARK   95  A    between atoms: _264  and  _266
REMARK   96  A    between atoms: _266  and  _267
REMARK   97  A    between atoms: _266  and  _269
REMARK   98  A    between atoms: _269  and  _270
REMARK   99  A    between atoms: _273  and  _275
REMARK  100  A    between atoms: _275  and  _276
REMARK  101  A    between atoms: _275  and  _278
REMARK  102  A    between atoms: _278  and  _279
REMARK  103  A    between atoms: _282  and  _284
REMARK  104  A    between atoms: _284  and  _285
REMARK  105  A    between atoms: _284  and  _287
REMARK  106  A    between atoms: _287  and  _288
REMARK                            x       y       z     vdW  Elec       q    Type
REMARK                         _______ _______ _______ _____ _____    ______ ____
ROOT
ATOM      1  O   HOH     1      96.358  94.654 -52.013  0.00  0.00    +0.000 OA
ENDROOT
TORSDOF 0
REMARK  Name = ../refined-set-2016/4agn/4agn_pocket.pdb
REMARK  106 active torsions:
REMARK  status: ('A' for Active; 'I' for Inactive)
REMARK    1  A    between atoms: _1  and  _3
REMARK    2  A    between atoms: _3  and  _4
REMARK    3  A    between atoms: _3  and  _6
REMARK    4  A    between atoms: _6  and  _7
REMARK    5  A    between atoms: _12  and  _13
REMARK    6  A    between atoms: _15  and  _17
REMARK    7  A    between atoms: _17  and  _18
REMARK    8  A    between atoms: _17  and  _20
REMARK    9  A    between atoms: _20  and  _21
REMARK   10  A    between atoms: _27  and  _29
REMARK   11  A    between atoms: _29  and  _30
REMARK   12  A    between atoms: _29  and  _32
REMARK   13  A    between atoms: _32  and  _33
REMARK   14  A    between atoms: _33  and  _34
REMARK   15  A    between atoms: _34  and  _35
REMARK   16  A    between atoms: _44  and  _46
REMARK   17  A    between atoms: _46  and  _47
REMARK   18  A    between atoms: _46  and  _49
REMARK   19  A    between atoms: _49  and  _50
REMARK   20  A    between atoms: _50  and  _51
REMARK   21  A    between atoms: _56  and  _58
REMARK   22  A    between atoms: _58  and  _59
REMARK   23  A    between atoms: _58  and  _61
REMARK   24  A    between atoms: _61  and  _62
REMARK   25  A    between atoms: _65  and  _67
REMARK   26  A    between atoms: _67  and  _68
REMARK   27  A    between atoms: _67  and  _70
REMARK   28  A    between atoms: _70  and  _71
REMARK   29  A    between atoms: _81  and  _83
REMARK   30  A    between atoms: _83  and  _84
REMARK   31  A    between atoms: _83  and  _86
REMARK   32  A    between atoms: _89  and  _91
REMARK   33  A    between atoms: _91  and  _92
REMARK   34  A    between atoms: _91  and  _94
REMARK   35  A    between atoms: _94  and  _95
REMARK   36  A    between atoms: _98  and  _100
REMARK   37  A    between atoms: _100  and  _101
REMARK   38  A    between atoms: _100  and  _103
REMARK   39  A    between atoms: _103  and  _104
REMARK   40  A    between atoms: _106  and  _108
REMARK   41  A    between atoms: _108  and  _109
REMARK   42  A    between atoms: _108  and  _111
REMARK   43  A    between atoms: _111  and  _112
REMARK   44  A    between atoms: _116  and  _117
REMARK   45  A    between atoms: _123  and  _124
REMARK   46  A    between atoms: _130  and  _131
REMARK   47  A    between atoms: _136  and  _138
REMARK   48  A    between atoms: _138  and  _139
REMARK   49  A    between atoms: _141  and  _143
REMARK   50  A    between atoms: _143  and  _144
REMARK   51  A    between atoms: _143  and  _146
REMARK   52  A    between atoms: _146  and  _147
REMARK   53  A    between atoms: _150  and  _152
REMARK   54  A    between atoms: _152  and  _153
REMARK   55  A    between atoms: _152  and  _155
REMARK   56  A    between atoms: _155  and  _156
REMARK   57  A    between atoms: _156  and  _157
REMARK   58  A    between atoms: _157  and  _158
REMARK   59  A    between atoms: _167  and  _169
REMARK   60  A    between atoms: _169  and  _170
REMARK   61  A    between atoms: _169  and  _172
REMARK   62  A    between atoms: _175  and  _177
REMARK   63  A    between atoms: _177  and  _178
REMARK   64  A    between atoms: _177  and  _180
REMARK   65  A    between atoms: _180  and  _181
REMARK   66  A    between atoms: _181  and  _182
REMARK   67  A    between atoms: _182  and  _183
REMARK   68  A    between atoms: _193  and  _194
REMARK   69  A    between atoms: _199  and  _201
REMARK   70  A    between atoms: _201  and  _202
REMARK   71  A    between atoms: _201  and  _204
REMARK   72  A    between atoms: _206  and  _208
REMARK   73  A    between atoms: _208  and  _209
REMARK   74  A    between atoms: _208  and  _211
REMARK   75  A    between atoms: _211  and  _212
REMARK   76  A    between atoms: _212  and  _213
REMARK   77  A    between atoms: _217  and  _218
REMARK   78  A    between atoms: _224  and  _225
REMARK   79  A    between atoms: _230  and  _232
REMARK   80  A    between atoms: _232  and  _233
REMARK   81  A    between atoms: _232  and  _235
REMARK   82  A    between atoms: _235  and  _236
REMARK   83  A    between atoms: _236  and  _237
REMARK   84  A    between atoms: _240  and  _242
REMARK   85  A    between atoms: _242  and  _243
REMARK   86  A    between atoms: _242  and  _245
REMARK   87  A    between atoms: _245  and  _246
REMARK   88  A    between atoms: _248  and  _250
REMARK   89  A    between atoms: _250  and  _251
REMARK   90  A    between atoms: _250  and  _253
REMARK   91  A    between atoms: _253  and  _254
REMARK   92  A    between atoms: _257  and  _259
REMARK   93  A    between atoms: _259  and  _260
REMARK   94  A    between atoms: _259  and  _262
REMARK   95  A    between atoms: _264  and  _266
REMARK   96  A    between atoms: _266  and  _267
REMARK   97  A    between atoms: _266  and  _269
REMARK   98  A    between atoms: _269  and  _270
REMARK   99  A    between atoms: _273  and  _275
REMARK  100  A    between atoms: _275  and  _276
REMARK  101  A    between atoms: _275  and  _278
REMARK  102  A    between atoms: _278  and  _279
REMARK  103  A    between atoms: _282  and  _284
REMARK  104  A    between atoms: _284  and  _285
REMARK  105  A    between atoms: _284  and  _287
REMARK  106  A    between atoms: _287  and  _288
REMARK                            x       y       z     vdW  Elec       q    Type
REMARK                         _______ _______ _______ _____ _____    ______ ____
ROOT
ATOM      1  O   HOH     1      89.449  97.555 -49.281  0.00  0.00    +0.000 OA
ENDROOT
TORSDOF 0
REMARK  Name = ../refined-set-2016/4agn/4agn_pocket.pdb
REMARK  106 active torsions:
REMARK  status: ('A' for Active; 'I' for Inactive)
REMARK    1  A    between atoms: _1  and  _3
REMARK    2  A    between atoms: _3  and  _4
REMARK    3  A    between atoms: _3  and  _6
REMARK    4  A    between atoms: _6  and  _7
REMARK    5  A    between atoms: _12  and  _13
REMARK    6  A    between atoms: _15  and  _17
REMARK    7  A    between atoms: _17  and  _18
REMARK    8  A    between atoms: _17  and  _20
REMARK    9  A    between atoms: _20  and  _21
REMARK   10  A    between atoms: _27  and  _29
REMARK   11  A    between atoms: _29  and  _30
REMARK   12  A    between atoms: _29  and  _32
REMARK   13  A    between atoms: _32  and  _33
REMARK   14  A    between atoms: _33  and  _34
REMARK   15  A    between atoms: _34  and  _35
REMARK   16  A    between atoms: _44  and  _46
REMARK   17  A    between atoms: _46  and  _47
REMARK   18  A    between atoms: _46  and  _49
REMARK   19  A    between atoms: _49  and  _50
REMARK   20  A    between atoms: _50  and  _51
REMARK   21  A    between atoms: _56  and  _58
REMARK   22  A    between atoms: _58  and  _59
REMARK   23  A    between atoms: _58  and  _61
REMARK   24  A    between atoms: _61  and  _62
REMARK   25  A    between atoms: _65  and  _67
REMARK   26  A    between atoms: _67  and  _68
REMARK   27  A    between atoms: _67  and  _70
REMARK   28  A    between atoms: _70  and  _71
REMARK   29  A    between atoms: _81  and  _83
REMARK   30  A    between atoms: _83  and  _84
REMARK   31  A    between atoms: _83  and  _86
REMARK   32  A    between atoms: _89  and  _91
REMARK   33  A    between atoms: _91  and  _92
REMARK   34  A    between atoms: _91  and  _94
REMARK   35  A    between atoms: _94  and  _95
REMARK   36  A    between atoms: _98  and  _100
REMARK   37  A    between atoms: _100  and  _101
REMARK   38  A    between atoms: _100  and  _103
REMARK   39  A    between atoms: _103  and  _104
REMARK   40  A    between atoms: _106  and  _108
REMARK   41  A    between atoms: _108  and  _109
REMARK   42  A    between atoms: _108  and  _111
REMARK   43  A    between atoms: _111  and  _112
REMARK   44  A    between atoms: _116  and  _117
REMARK   45  A    between atoms: _123  and  _124
REMARK   46  A    between atoms: _130  and  _131
REMARK   47  A    between atoms: _136  and  _138
REMARK   48  A    between atoms: _138  and  _139
REMARK   49  A    between atoms: _141  and  _143
REMARK   50  A    between atoms: _143  and  _144
REMARK   51  A    between atoms: _143  and  _146
REMARK   52  A    between atoms: _146  and  _147
REMARK   53  A    between atoms: _150  and  _152
REMARK   54  A    between atoms: _152  and  _153
REMARK   55  A    between atoms: _152  and  _155
REMARK   56  A    between atoms: _155  and  _156
REMARK   57  A    between atoms: _156  and  _157
REMARK   58  A    between atoms: _157  and  _158
REMARK   59  A    between atoms: _167  and  _169
REMARK   60  A    between atoms: _169  and  _170
REMARK   61  A    between atoms: _169  and  _172
REMARK   62  A    between atoms: _175  and  _177
REMARK   63  A    between atoms: _177  and  _178
REMARK   64  A    between atoms: _177  and  _180
REMARK   65  A    between atoms: _180  and  _181
REMARK   66  A    between atoms: _181  and  _182
REMARK   67  A    between atoms: _182  and  _183
REMARK   68  A    between atoms: _193  and  _194
REMARK   69  A    between atoms: _199  and  _201
REMARK   70  A    between atoms: _201  and  _202
REMARK   71  A    between atoms: _201  and  _204
REMARK   72  A    between atoms: _206  and  _208
REMARK   73  A    between atoms: _208  and  _209
REMARK   74  A    between atoms: _208  and  _211
REMARK   75  A    between atoms: _211  and  _212
REMARK   76  A    between atoms: _212  and  _213
REMARK   77  A    between atoms: _217  and  _218
REMARK   78  A    between atoms: _224  and  _225
REMARK   79  A    between atoms: _230  and  _232
REMARK   80  A    between atoms: _232  and  _233
REMARK   81  A    between atoms: _232  and  _235
REMARK   82  A    between atoms: _235  and  _236
REMARK   83  A    between atoms: _236  and  _237
REMARK   84  A    between atoms: _240  and  _242
REMARK   85  A    between atoms: _242  and  _243
REMARK   86  A    between atoms: _242  and  _245
REMARK   87  A    between atoms: _245  and  _246
REMARK   88  A    between atoms: _248  and  _250
REMARK   89  A    between atoms: _250  and  _251
REMARK   90  A    between atoms: _250  and  _253
REMARK   91  A    between atoms: _253  and  _254
REMARK   92  A    between atoms: _257  and  _259
REMARK   93  A    between atoms: _259  and  _260
REMARK   94  A    between atoms: _259  and  _262
REMARK   95  A    between atoms: _264  and  _266
REMARK   96  A    between atoms: _266  and  _267
REMARK   97  A    between atoms: _266  and  _269
REMARK   98  A    between atoms: _269  and  _270
REMARK   99  A    between atoms: _273  and  _275
REMARK  100  A    between atoms: _275  and  _276
REMARK  101  A    between atoms: _275  and  _278
REMARK  102  A    between atoms: _278  and  _279
REMARK  103  A    between atoms: _282  and  _284
REMARK  104  A    between atoms: _284  and  _285
REMARK  105  A    between atoms: _284  and  _287
REMARK  106  A    between atoms: _287  and  _288
REMARK                            x       y       z     vdW  Elec       q    Type
REMARK                         _______ _______ _______ _____ _____    ______ ____
ROOT
ATOM      1  O   HOH     1      88.517  95.544 -48.443  0.00  0.00    +0.000 OA
ENDROOT
TORSDOF 0
REMARK  Name = ../refined-set-2016/4agn/4agn_pocket.pdb
REMARK  106 active torsions:
REMARK  status: ('A' for Active; 'I' for Inactive)
REMARK    1  A    between atoms: _1  and  _3
REMARK    2  A    between atoms: _3  and  _4
REMARK    3  A    between atoms: _3  and  _6
REMARK    4  A    between atoms: _6  and  _7
REMARK    5  A    between atoms: _12  and  _13
REMARK    6  A    between atoms: _15  and  _17
REMARK    7  A    between atoms: _17  and  _18
REMARK    8  A    between atoms: _17  and  _20
REMARK    9  A    between atoms: _20  and  _21
REMARK   10  A    between atoms: _27  and  _29
REMARK   11  A    between atoms: _29  and  _30
REMARK   12  A    between atoms: _29  and  _32
REMARK   13  A    between atoms: _32  and  _33
REMARK   14  A    between atoms: _33  and  _34
REMARK   15  A    between atoms: _34  and  _35
REMARK   16  A    between atoms: _44  and  _46
REMARK   17  A    between atoms: _46  and  _47
REMARK   18  A    between atoms: _46  and  _49
REMARK   19  A    between atoms: _49  and  _50
REMARK   20  A    between atoms: _50  and  _51
REMARK   21  A    between atoms: _56  and  _58
REMARK   22  A    between atoms: _58  and  _59
REMARK   23  A    between atoms: _58  and  _61
REMARK   24  A    between atoms: _61  and  _62
REMARK   25  A    between atoms: _65  and  _67
REMARK   26  A    between atoms: _67  and  _68
REMARK   27  A    between atoms: _67  and  _70
REMARK   28  A    between atoms: _70  and  _71
REMARK   29  A    between atoms: _81  and  _83
REMARK   30  A    between atoms: _83  and  _84
REMARK   31  A    between atoms: _83  and  _86
REMARK   32  A    between atoms: _89  and  _91
REMARK   33  A    between atoms: _91  and  _92
REMARK   34  A    between atoms: _91  and  _94
REMARK   35  A    between atoms: _94  and  _95
REMARK   36  A    between atoms: _98  and  _100
REMARK   37  A    between atoms: _100  and  _101
REMARK   38  A    between atoms: _100  and  _103
REMARK   39  A    between atoms: _103  and  _104
REMARK   40  A    between atoms: _106  and  _108
REMARK   41  A    between atoms: _108  and  _109
REMARK   42  A    between atoms: _108  and  _111
REMARK   43  A    between atoms: _111  and  _112
REMARK   44  A    between atoms: _116  and  _117
REMARK   45  A    between atoms: _123  and  _124
REMARK   46  A    between atoms: _130  and  _131
REMARK   47  A    between atoms: _136  and  _138
REMARK   48  A    between atoms: _138  and  _139
REMARK   49  A    between atoms: _141  and  _143
REMARK   50  A    between atoms: _143  and  _144
REMARK   51  A    between atoms: _143  and  _146
REMARK   52  A    between atoms: _146  and  _147
REMARK   53  A    between atoms: _150  and  _152
REMARK   54  A    between atoms: _152  and  _153
REMARK   55  A    between atoms: _152  and  _155
REMARK   56  A    between atoms: _155  and  _156
REMARK   57  A    between atoms: _156  and  _157
REMARK   58  A    between atoms: _157  and  _158
REMARK   59  A    between atoms: _167  and  _169
REMARK   60  A    between atoms: _169  and  _170
REMARK   61  A    between atoms: _169  and  _172
REMARK   62  A    between atoms: _175  and  _177
REMARK   63  A    between atoms: _177  and  _178
REMARK   64  A    between atoms: _177  and  _180
REMARK   65  A    between atoms: _180  and  _181
REMARK   66  A    between atoms: _181  and  _182
REMARK   67  A    between atoms: _182  and  _183
REMARK   68  A    between atoms: _193  and  _194
REMARK   69  A    between atoms: _199  and  _201
REMARK   70  A    between atoms: _201  and  _202
REMARK   71  A    between atoms: _201  and  _204
REMARK   72  A    between atoms: _206  and  _208
REMARK   73  A    between atoms: _208  and  _209
REMARK   74  A    between atoms: _208  and  _211
REMARK   75  A    between atoms: _211  and  _212
REMARK   76  A    between atoms: _212  and  _213
REMARK   77  A    between atoms: _217  and  _218
REMARK   78  A    between atoms: _224  and  _225
REMARK   79  A    between atoms: _230  and  _232
REMARK   80  A    between atoms: _232  and  _233
REMARK   81  A    between atoms: _232  and  _235
REMARK   82  A    between atoms: _235  and  _236
REMARK   83  A    between atoms: _236  and  _237
REMARK   84  A    between atoms: _240  and  _242
REMARK   85  A    between atoms: _242  and  _243
REMARK   86  A    between atoms: _242  and  _245
REMARK   87  A    between atoms: _245  and  _246
REMARK   88  A    between atoms: _248  and  _250
REMARK   89  A    between atoms: _250  and  _251
REMARK   90  A    between atoms: _250  and  _253
REMARK   91  A    between atoms: _253  and  _254
REMARK   92  A    between atoms: _257  and  _259
REMARK   93  A    between atoms: _259  and  _260
REMARK   94  A    between atoms: _259  and  _262
REMARK   95  A    between atoms: _264  and  _266
REMARK   96  A    between atoms: _266  and  _267
REMARK   97  A    between atoms: _266  and  _269
REMARK   98  A    between atoms: _269  and  _270
REMARK   99  A    between atoms: _273  and  _275
REMARK  100  A    between atoms: _275  and  _276
REMARK  101  A    between atoms: _275  and  _278
REMARK  102  A    between atoms: _278  and  _279
REMARK  103  A    between atoms: _282  and  _284
REMARK  104  A    between atoms: _284  and  _285
REMARK  105  A    between atoms: _284  and  _287
REMARK  106  A    between atoms: _287  and  _288
REMARK                            x       y       z     vdW  Elec       q    Type
REMARK                         _______ _______ _______ _____ _____    ______ ____
ROOT
ATOM      1  O   HOH     1      90.533  96.627 -52.340  0.00  0.00    +0.000 OA
ENDROOT
TORSDOF 0
REMARK  Name = ../refined-set-2016/4agn/4agn_pocket.pdb
REMARK  106 active torsions:
REMARK  status: ('A' for Active; 'I' for Inactive)
REMARK    1  A    between atoms: _1  and  _3
REMARK    2  A    between atoms: _3  and  _4
REMARK    3  A    between atoms: _3  and  _6
REMARK    4  A    between atoms: _6  and  _7
REMARK    5  A    between atoms: _12  and  _13
REMARK    6  A    between atoms: _15  and  _17
REMARK    7  A    between atoms: _17  and  _18
REMARK    8  A    between atoms: _17  and  _20
REMARK    9  A    between atoms: _20  and  _21
REMARK   10  A    between atoms: _27  and  _29
REMARK   11  A    between atoms: _29  and  _30
REMARK   12  A    between atoms: _29  and  _32
REMARK   13  A    between atoms: _32  and  _33
REMARK   14  A    between atoms: _33  and  _34
REMARK   15  A    between atoms: _34  and  _35
REMARK   16  A    between atoms: _44  and  _46
REMARK   17  A    between atoms: _46  and  _47
REMARK   18  A    between atoms: _46  and  _49
REMARK   19  A    between atoms: _49  and  _50
REMARK   20  A    between atoms: _50  and  _51
REMARK   21  A    between atoms: _56  and  _58
REMARK   22  A    between atoms: _58  and  _59
REMARK   23  A    between atoms: _58  and  _61
REMARK   24  A    between atoms: _61  and  _62
REMARK   25  A    between atoms: _65  and  _67
REMARK   26  A    between atoms: _67  and  _68
REMARK   27  A    between atoms: _67  and  _70
REMARK   28  A    between atoms: _70  and  _71
REMARK   29  A    between atoms: _81  and  _83
REMARK   30  A    between atoms: _83  and  _84
REMARK   31  A    between atoms: _83  and  _86
REMARK   32  A    between atoms: _89  and  _91
REMARK   33  A    between atoms: _91  and  _92
REMARK   34  A    between atoms: _91  and  _94
REMARK   35  A    between atoms: _94  and  _95
REMARK   36  A    between atoms: _98  and  _100
REMARK   37  A    between atoms: _100  and  _101
REMARK   38  A    between atoms: _100  and  _103
REMARK   39  A    between atoms: _103  and  _104
REMARK   40  A    between atoms: _106  and  _108
REMARK   41  A    between atoms: _108  and  _109
REMARK   42  A    between atoms: _108  and  _111
REMARK   43  A    between atoms: _111  and  _112
REMARK   44  A    between atoms: _116  and  _117
REMARK   45  A    between atoms: _123  and  _124
REMARK   46  A    between atoms: _130  and  _131
REMARK   47  A    between atoms: _136  and  _138
REMARK   48  A    between atoms: _138  and  _139
REMARK   49  A    between atoms: _141  and  _143
REMARK   50  A    between atoms: _143  and  _144
REMARK   51  A    between atoms: _143  and  _146
REMARK   52  A    between atoms: _146  and  _147
REMARK   53  A    between atoms: _150  and  _152
REMARK   54  A    between atoms: _152  and  _153
REMARK   55  A    between atoms: _152  and  _155
REMARK   56  A    between atoms: _155  and  _156
REMARK   57  A    between atoms: _156  and  _157
REMARK   58  A    between atoms: _157  and  _158
REMARK   59  A    between atoms: _167  and  _169
REMARK   60  A    between atoms: _169  and  _170
REMARK   61  A    between atoms: _169  and  _172
REMARK   62  A    between atoms: _175  and  _177
REMARK   63  A    between atoms: _177  and  _178
REMARK   64  A    between atoms: _177  and  _180
REMARK   65  A    between atoms: _180  and  _181
REMARK   66  A    between atoms: _181  and  _182
REMARK   67  A    between atoms: _182  and  _183
REMARK   68  A    between atoms: _193  and  _194
REMARK   69  A    between atoms: _199  and  _201
REMARK   70  A    between atoms: _201  and  _202
REMARK   71  A    between atoms: _201  and  _204
REMARK   72  A    between atoms: _206  and  _208
REMARK   73  A    between atoms: _208  and  _209
REMARK   74  A    between atoms: _208  and  _211
REMARK   75  A    between atoms: _211  and  _212
REMARK   76  A    between atoms: _212  and  _213
REMARK   77  A    between atoms: _217  and  _218
REMARK   78  A    between atoms: _224  and  _225
REMARK   79  A    between atoms: _230  and  _232
REMARK   80  A    between atoms: _232  and  _233
REMARK   81  A    between atoms: _232  and  _235
REMARK   82  A    between atoms: _235  and  _236
REMARK   83  A    between atoms: _236  and  _237
REMARK   84  A    between atoms: _240  and  _242
REMARK   85  A    between atoms: _242  and  _243
REMARK   86  A    between atoms: _242  and  _245
REMARK   87  A    between atoms: _245  and  _246
REMARK   88  A    between atoms: _248  and  _250
REMARK   89  A    between atoms: _250  and  _251
REMARK   90  A    between atoms: _250  and  _253
REMARK   91  A    between atoms: _253  and  _254
REMARK   92  A    between atoms: _257  and  _259
REMARK   93  A    between atoms: _259  and  _260
REMARK   94  A    between atoms: _259  and  _262
REMARK   95  A    between atoms: _264  and  _266
REMARK   96  A    between atoms: _266  and  _267
REMARK   97  A    between atoms: _266  and  _269
REMARK   98  A    between atoms: _269  and  _270
REMARK   99  A    between atoms: _273  and  _275
REMARK  100  A    between atoms: _275  and  _276
REMARK  101  A    between atoms: _275  and  _278
REMARK  102  A    between atoms: _278  and  _279
REMARK  103  A    between atoms: _282  and  _284
REMARK  104  A    between atoms: _284  and  _285
REMARK  105  A    between atoms: _284  and  _287
REMARK  106  A    between atoms: _287  and  _288
REMARK                            x       y       z     vdW  Elec       q    Type
REMARK                         _______ _______ _______ _____ _____    ______ ____
ROOT
ATOM      1  O   HOH     1      91.773  94.045 -52.823  0.00  0.00    +0.000 OA
ENDROOT
TORSDOF 0
REMARK  Name = ../refined-set-2016/4agn/4agn_pocket.pdb
REMARK  106 active torsions:
REMARK  status: ('A' for Active; 'I' for Inactive)
REMARK    1  A    between atoms: _1  and  _3
REMARK    2  A    between atoms: _3  and  _4
REMARK    3  A    between atoms: _3  and  _6
REMARK    4  A    between atoms: _6  and  _7
REMARK    5  A    between atoms: _12  and  _13
REMARK    6  A    between atoms: _15  and  _17
REMARK    7  A    between atoms: _17  and  _18
REMARK    8  A    between atoms: _17  and  _20
REMARK    9  A    between atoms: _20  and  _21
REMARK   10  A    between atoms: _27  and  _29
REMARK   11  A    between atoms: _29  and  _30
REMARK   12  A    between atoms: _29  and  _32
REMARK   13  A    between atoms: _32  and  _33
REMARK   14  A    between atoms: _33  and  _34
REMARK   15  A    between atoms: _34  and  _35
REMARK   16  A    between atoms: _44  and  _46
REMARK   17  A    between atoms: _46  and  _47
REMARK   18  A    between atoms: _46  and  _49
REMARK   19  A    between atoms: _49  and  _50
REMARK   20  A    between atoms: _50  and  _51
REMARK   21  A    between atoms: _56  and  _58
REMARK   22  A    between atoms: _58  and  _59
REMARK   23  A    between atoms: _58  and  _61
REMARK   24  A    between atoms: _61  and  _62
REMARK   25  A    between atoms: _65  and  _67
REMARK   26  A    between atoms: _67  and  _68
REMARK   27  A    between atoms: _67  and  _70
REMARK   28  A    between atoms: _70  and  _71
REMARK   29  A    between atoms: _81  and  _83
REMARK   30  A    between atoms: _83  and  _84
REMARK   31  A    between atoms: _83  and  _86
REMARK   32  A    between atoms: _89  and  _91
REMARK   33  A    between atoms: _91  and  _92
REMARK   34  A    between atoms: _91  and  _94
REMARK   35  A    between atoms: _94  and  _95
REMARK   36  A    between atoms: _98  and  _100
REMARK   37  A    between atoms: _100  and  _101
REMARK   38  A    between atoms: _100  and  _103
REMARK   39  A    between atoms: _103  and  _104
REMARK   40  A    between atoms: _106  and  _108
REMARK   41  A    between atoms: _108  and  _109
REMARK   42  A    between atoms: _108  and  _111
REMARK   43  A    between atoms: _111  and  _112
REMARK   44  A    between atoms: _116  and  _117
REMARK   45  A    between atoms: _123  and  _124
REMARK   46  A    between atoms: _130  and  _131
REMARK   47  A    between atoms: _136  and  _138
REMARK   48  A    between atoms: _138  and  _139
REMARK   49  A    between atoms: _141  and  _143
REMARK   50  A    between atoms: _143  and  _144
REMARK   51  A    between atoms: _143  and  _146
REMARK   52  A    between atoms: _146  and  _147
REMARK   53  A    between atoms: _150  and  _152
REMARK   54  A    between atoms: _152  and  _153
REMARK   55  A    between atoms: _152  and  _155
REMARK   56  A    between atoms: _155  and  _156
REMARK   57  A    between atoms: _156  and  _157
REMARK   58  A    between atoms: _157  and  _158
REMARK   59  A    between atoms: _167  and  _169
REMARK   60  A    between atoms: _169  and  _170
REMARK   61  A    between atoms: _169  and  _172
REMARK   62  A    between atoms: _175  and  _177
REMARK   63  A    between atoms: _177  and  _178
REMARK   64  A    between atoms: _177  and  _180
REMARK   65  A    between atoms: _180  and  _181
REMARK   66  A    between atoms: _181  and  _182
REMARK   67  A    between atoms: _182  and  _183
REMARK   68  A    between atoms: _193  and  _194
REMARK   69  A    between atoms: _199  and  _201
REMARK   70  A    between atoms: _201  and  _202
REMARK   71  A    between atoms: _201  and  _204
REMARK   72  A    between atoms: _206  and  _208
REMARK   73  A    between atoms: _208  and  _209
REMARK   74  A    between atoms: _208  and  _211
REMARK   75  A    between atoms: _211  and  _212
REMARK   76  A    between atoms: _212  and  _213
REMARK   77  A    between atoms: _217  and  _218
REMARK   78  A    between atoms: _224  and  _225
REMARK   79  A    between atoms: _230  and  _232
REMARK   80  A    between atoms: _232  and  _233
REMARK   81  A    between atoms: _232  and  _235
REMARK   82  A    between atoms: _235  and  _236
REMARK   83  A    between atoms: _236  and  _237
REMARK   84  A    between atoms: _240  and  _242
REMARK   85  A    between atoms: _242  and  _243
REMARK   86  A    between atoms: _242  and  _245
REMARK   87  A    between atoms: _245  and  _246
REMARK   88  A    between atoms: _248  and  _250
REMARK   89  A    between atoms: _250  and  _251
REMARK   90  A    between atoms: _250  and  _253
REMARK   91  A    between atoms: _253  and  _254
REMARK   92  A    between atoms: _257  and  _259
REMARK   93  A    between atoms: _259  and  _260
REMARK   94  A    between atoms: _259  and  _262
REMARK   95  A    between atoms: _264  and  _266
REMARK   96  A    between atoms: _266  and  _267
REMARK   97  A    between atoms: _266  and  _269
REMARK   98  A    between atoms: _269  and  _270
REMARK   99  A    between atoms: _273  and  _275
REMARK  100  A    between atoms: _275  and  _276
REMARK  101  A    between atoms: _275  and  _278
REMARK  102  A    between atoms: _278  and  _279
REMARK  103  A    between atoms: _282  and  _284
REMARK  104  A    between atoms: _284  and  _285
REMARK  105  A    between atoms: _284  and  _287
REMARK  106  A    between atoms: _287  and  _288
REMARK                            x       y       z     vdW  Elec       q    Type
REMARK                         _______ _______ _______ _____ _____    ______ ____
ROOT
ATOM      1  O   HOH     1      91.871  92.278 -51.224  0.00  0.00    +0.000 OA
ENDROOT
TORSDOF 0
REMARK  Name = ../refined-set-2016/4agn/4agn_pocket.pdb
REMARK  106 active torsions:
REMARK  status: ('A' for Active; 'I' for Inactive)
REMARK    1  A    between atoms: _1  and  _3
REMARK    2  A    between atoms: _3  and  _4
REMARK    3  A    between atoms: _3  and  _6
REMARK    4  A    between atoms: _6  and  _7
REMARK    5  A    between atoms: _12  and  _13
REMARK    6  A    between atoms: _15  and  _17
REMARK    7  A    between atoms: _17  and  _18
REMARK    8  A    between atoms: _17  and  _20
REMARK    9  A    between atoms: _20  and  _21
REMARK   10  A    between atoms: _27  and  _29
REMARK   11  A    between atoms: _29  and  _30
REMARK   12  A    between atoms: _29  and  _32
REMARK   13  A    between atoms: _32  and  _33
REMARK   14  A    between atoms: _33  and  _34
REMARK   15  A    between atoms: _34  and  _35
REMARK   16  A    between atoms: _44  and  _46
REMARK   17  A    between atoms: _46  and  _47
REMARK   18  A    between atoms: _46  and  _49
REMARK   19  A    between atoms: _49  and  _50
REMARK   20  A    between atoms: _50  and  _51
REMARK   21  A    between atoms: _56  and  _58
REMARK   22  A    between atoms: _58  and  _59
REMARK   23  A    between atoms: _58  and  _61
REMARK   24  A    between atoms: _61  and  _62
REMARK   25  A    between atoms: _65  and  _67
REMARK   26  A    between atoms: _67  and  _68
REMARK   27  A    between atoms: _67  and  _70
REMARK   28  A    between atoms: _70  and  _71
REMARK   29  A    between atoms: _81  and  _83
REMARK   30  A    between atoms: _83  and  _84
REMARK   31  A    between atoms: _83  and  _86
REMARK   32  A    between atoms: _89  and  _91
REMARK   33  A    between atoms: _91  and  _92
REMARK   34  A    between atoms: _91  and  _94
REMARK   35  A    between atoms: _94  and  _95
REMARK   36  A    between atoms: _98  and  _100
REMARK   37  A    between atoms: _100  and  _101
REMARK   38  A    between atoms: _100  and  _103
REMARK   39  A    between atoms: _103  and  _104
REMARK   40  A    between atoms: _106  and  _108
REMARK   41  A    between atoms: _108  and  _109
REMARK   42  A    between atoms: _108  and  _111
REMARK   43  A    between atoms: _111  and  _112
REMARK   44  A    between atoms: _116  and  _117
REMARK   45  A    between atoms: _123  and  _124
REMARK   46  A    between atoms: _130  and  _131
REMARK   47  A    between atoms: _136  and  _138
REMARK   48  A    between atoms: _138  and  _139
REMARK   49  A    between atoms: _141  and  _143
REMARK   50  A    between atoms: _143  and  _144
REMARK   51  A    between atoms: _143  and  _146
REMARK   52  A    between atoms: _146  and  _147
REMARK   53  A    between atoms: _150  and  _152
REMARK   54  A    between atoms: _152  and  _153
REMARK   55  A    between atoms: _152  and  _155
REMARK   56  A    between atoms: _155  and  _156
REMARK   57  A    between atoms: _156  and  _157
REMARK   58  A    between atoms: _157  and  _158
REMARK   59  A    between atoms: _167  and  _169
REMARK   60  A    between atoms: _169  and  _170
REMARK   61  A    between atoms: _169  and  _172
REMARK   62  A    between atoms: _175  and  _177
REMARK   63  A    between atoms: _177  and  _178
REMARK   64  A    between atoms: _177  and  _180
REMARK   65  A    between atoms: _180  and  _181
REMARK   66  A    between atoms: _181  and  _182
REMARK   67  A    between atoms: _182  and  _183
REMARK   68  A    between atoms: _193  and  _194
REMARK   69  A    between atoms: _199  and  _201
REMARK   70  A    between atoms: _201  and  _202
REMARK   71  A    between atoms: _201  and  _204
REMARK   72  A    between atoms: _206  and  _208
REMARK   73  A    between atoms: _208  and  _209
REMARK   74  A    between atoms: _208  and  _211
REMARK   75  A    between atoms: _211  and  _212
REMARK   76  A    between atoms: _212  and  _213
REMARK   77  A    between atoms: _217  and  _218
REMARK   78  A    between atoms: _224  and  _225
REMARK   79  A    between atoms: _230  and  _232
REMARK   80  A    between atoms: _232  and  _233
REMARK   81  A    between atoms: _232  and  _235
REMARK   82  A    between atoms: _235  and  _236
REMARK   83  A    between atoms: _236  and  _237
REMARK   84  A    between atoms: _240  and  _242
REMARK   85  A    between atoms: _242  and  _243
REMARK   86  A    between atoms: _242  and  _245
REMARK   87  A    between atoms: _245  and  _246
REMARK   88  A    between atoms: _248  and  _250
REMARK   89  A    between atoms: _250  and  _251
REMARK   90  A    between atoms: _250  and  _253
REMARK   91  A    between atoms: _253  and  _254
REMARK   92  A    between atoms: _257  and  _259
REMARK   93  A    between atoms: _259  and  _260
REMARK   94  A    between atoms: _259  and  _262
REMARK   95  A    between atoms: _264  and  _266
REMARK   96  A    between atoms: _266  and  _267
REMARK   97  A    between atoms: _266  and  _269
REMARK   98  A    between atoms: _269  and  _270
REMARK   99  A    between atoms: _273  and  _275
REMARK  100  A    between atoms: _275  and  _276
REMARK  101  A    between atoms: _275  and  _278
REMARK  102  A    between atoms: _278  and  _279
REMARK  103  A    between atoms: _282  and  _284
REMARK  104  A    between atoms: _284  and  _285
REMARK  105  A    between atoms: _284  and  _287
REMARK  106  A    between atoms: _287  and  _288
REMARK                            x       y       z     vdW  Elec       q    Type
REMARK                         _______ _______ _______ _____ _____    ______ ____
ROOT
ATOM      1  O   HOH     1      95.077  87.269 -55.189  0.00  0.00    +0.000 OA
ENDROOT
TORSDOF 0
REMARK  Name = ../refined-set-2016/4agn/4agn_pocket.pdb
REMARK  106 active torsions:
REMARK  status: ('A' for Active; 'I' for Inactive)
REMARK    1  A    between atoms: _1  and  _3
REMARK    2  A    between atoms: _3  and  _4
REMARK    3  A    between atoms: _3  and  _6
REMARK    4  A    between atoms: _6  and  _7
REMARK    5  A    between atoms: _12  and  _13
REMARK    6  A    between atoms: _15  and  _17
REMARK    7  A    between atoms: _17  and  _18
REMARK    8  A    between atoms: _17  and  _20
REMARK    9  A    between atoms: _20  and  _21
REMARK   10  A    between atoms: _27  and  _29
REMARK   11  A    between atoms: _29  and  _30
REMARK   12  A    between atoms: _29  and  _32
REMARK   13  A    between atoms: _32  and  _33
REMARK   14  A    between atoms: _33  and  _34
REMARK   15  A    between atoms: _34  and  _35
REMARK   16  A    between atoms: _44  and  _46
REMARK   17  A    between atoms: _46  and  _47
REMARK   18  A    between atoms: _46  and  _49
REMARK   19  A    between atoms: _49  and  _50
REMARK   20  A    between atoms: _50  and  _51
REMARK   21  A    between atoms: _56  and  _58
REMARK   22  A    between atoms: _58  and  _59
REMARK   23  A    between atoms: _58  and  _61
REMARK   24  A    between atoms: _61  and  _62
REMARK   25  A    between atoms: _65  and  _67
REMARK   26  A    between atoms: _67  and  _68
REMARK   27  A    between atoms: _67  and  _70
REMARK   28  A    between atoms: _70  and  _71
REMARK   29  A    between atoms: _81  and  _83
REMARK   30  A    between atoms: _83  and  _84
REMARK   31  A    between atoms: _83  and  _86
REMARK   32  A    between atoms: _89  and  _91
REMARK   33  A    between atoms: _91  and  _92
REMARK   34  A    between atoms: _91  and  _94
REMARK   35  A    between atoms: _94  and  _95
REMARK   36  A    between atoms: _98  and  _100
REMARK   37  A    between atoms: _100  and  _101
REMARK   38  A    between atoms: _100  and  _103
REMARK   39  A    between atoms: _103  and  _104
REMARK   40  A    between atoms: _106  and  _108
REMARK   41  A    between atoms: _108  and  _109
REMARK   42  A    between atoms: _108  and  _111
REMARK   43  A    between atoms: _111  and  _112
REMARK   44  A    between atoms: _116  and  _117
REMARK   45  A    between atoms: _123  and  _124
REMARK   46  A    between atoms: _130  and  _131
REMARK   47  A    between atoms: _136  and  _138
REMARK   48  A    between atoms: _138  and  _139
REMARK   49  A    between atoms: _141  and  _143
REMARK   50  A    between atoms: _143  and  _144
REMARK   51  A    between atoms: _143  and  _146
REMARK   52  A    between atoms: _146  and  _147
REMARK   53  A    between atoms: _150  and  _152
REMARK   54  A    between atoms: _152  and  _153
REMARK   55  A    between atoms: _152  and  _155
REMARK   56  A    between atoms: _155  and  _156
REMARK   57  A    between atoms: _156  and  _157
REMARK   58  A    between atoms: _157  and  _158
REMARK   59  A    between atoms: _167  and  _169
REMARK   60  A    between atoms: _169  and  _170
REMARK   61  A    between atoms: _169  and  _172
REMARK   62  A    between atoms: _175  and  _177
REMARK   63  A    between atoms: _177  and  _178
REMARK   64  A    between atoms: _177  and  _180
REMARK   65  A    between atoms: _180  and  _181
REMARK   66  A    between atoms: _181  and  _182
REMARK   67  A    between atoms: _182  and  _183
REMARK   68  A    between atoms: _193  and  _194
REMARK   69  A    between atoms: _199  and  _201
REMARK   70  A    between atoms: _201  and  _202
REMARK   71  A    between atoms: _201  and  _204
REMARK   72  A    between atoms: _206  and  _208
REMARK   73  A    between atoms: _208  and  _209
REMARK   74  A    between atoms: _208  and  _211
REMARK   75  A    between atoms: _211  and  _212
REMARK   76  A    between atoms: _212  and  _213
REMARK   77  A    between atoms: _217  and  _218
REMARK   78  A    between atoms: _224  and  _225
REMARK   79  A    between atoms: _230  and  _232
REMARK   80  A    between atoms: _232  and  _233
REMARK   81  A    between atoms: _232  and  _235
REMARK   82  A    between atoms: _235  and  _236
REMARK   83  A    between atoms: _236  and  _237
REMARK   84  A    between atoms: _240  and  _242
REMARK   85  A    between atoms: _242  and  _243
REMARK   86  A    between atoms: _242  and  _245
REMARK   87  A    between atoms: _245  and  _246
REMARK   88  A    between atoms: _248  and  _250
REMARK   89  A    between atoms: _250  and  _251
REMARK   90  A    between atoms: _250  and  _253
REMARK   91  A    between atoms: _253  and  _254
REMARK   92  A    between atoms: _257  and  _259
REMARK   93  A    between atoms: _259  and  _260
REMARK   94  A    between atoms: _259  and  _262
REMARK   95  A    between atoms: _264  and  _266
REMARK   96  A    between atoms: _266  and  _267
REMARK   97  A    between atoms: _266  and  _269
REMARK   98  A    between atoms: _269  and  _270
REMARK   99  A    between atoms: _273  and  _275
REMARK  100  A    between atoms: _275  and  _276
REMARK  101  A    between atoms: _275  and  _278
REMARK  102  A    between atoms: _278  and  _279
REMARK  103  A    between atoms: _282  and  _284
REMARK  104  A    between atoms: _284  and  _285
REMARK  105  A    between atoms: _284  and  _287
REMARK  106  A    between atoms: _287  and  _288
REMARK                            x       y       z     vdW  Elec       q    Type
REMARK                         _______ _______ _______ _____ _____    ______ ____
ROOT
ATOM      1  O   HOH     1      92.083  86.612 -48.129  0.00  0.00    +0.000 OA
ENDROOT
TORSDOF 0
REMARK  Name = ../refined-set-2016/4agn/4agn_pocket.pdb
REMARK  106 active torsions:
REMARK  status: ('A' for Active; 'I' for Inactive)
REMARK    1  A    between atoms: _1  and  _3
REMARK    2  A    between atoms: _3  and  _4
REMARK    3  A    between atoms: _3  and  _6
REMARK    4  A    between atoms: _6  and  _7
REMARK    5  A    between atoms: _12  and  _13
REMARK    6  A    between atoms: _15  and  _17
REMARK    7  A    between atoms: _17  and  _18
REMARK    8  A    between atoms: _17  and  _20
REMARK    9  A    between atoms: _20  and  _21
REMARK   10  A    between atoms: _27  and  _29
REMARK   11  A    between atoms: _29  and  _30
REMARK   12  A    between atoms: _29  and  _32
REMARK   13  A    between atoms: _32  and  _33
REMARK   14  A    between atoms: _33  and  _34
REMARK   15  A    between atoms: _34  and  _35
REMARK   16  A    between atoms: _44  and  _46
REMARK   17  A    between atoms: _46  and  _47
REMARK   18  A    between atoms: _46  and  _49
REMARK   19  A    between atoms: _49  and  _50
REMARK   20  A    between atoms: _50  and  _51
REMARK   21  A    between atoms: _56  and  _58
REMARK   22  A    between atoms: _58  and  _59
REMARK   23  A    between atoms: _58  and  _61
REMARK   24  A    between atoms: _61  and  _62
REMARK   25  A    between atoms: _65  and  _67
REMARK   26  A    between atoms: _67  and  _68
REMARK   27  A    between atoms: _67  and  _70
REMARK   28  A    between atoms: _70  and  _71
REMARK   29  A    between atoms: _81  and  _83
REMARK   30  A    between atoms: _83  and  _84
REMARK   31  A    between atoms: _83  and  _86
REMARK   32  A    between atoms: _89  and  _91
REMARK   33  A    between atoms: _91  and  _92
REMARK   34  A    between atoms: _91  and  _94
REMARK   35  A    between atoms: _94  and  _95
REMARK   36  A    between atoms: _98  and  _100
REMARK   37  A    between atoms: _100  and  _101
REMARK   38  A    between atoms: _100  and  _103
REMARK   39  A    between atoms: _103  and  _104
REMARK   40  A    between atoms: _106  and  _108
REMARK   41  A    between atoms: _108  and  _109
REMARK   42  A    between atoms: _108  and  _111
REMARK   43  A    between atoms: _111  and  _112
REMARK   44  A    between atoms: _116  and  _117
REMARK   45  A    between atoms: _123  and  _124
REMARK   46  A    between atoms: _130  and  _131
REMARK   47  A    between atoms: _136  and  _138
REMARK   48  A    between atoms: _138  and  _139
REMARK   49  A    between atoms: _141  and  _143
REMARK   50  A    between atoms: _143  and  _144
REMARK   51  A    between atoms: _143  and  _146
REMARK   52  A    between atoms: _146  and  _147
REMARK   53  A    between atoms: _150  and  _152
REMARK   54  A    between atoms: _152  and  _153
REMARK   55  A    between atoms: _152  and  _155
REMARK   56  A    between atoms: _155  and  _156
REMARK   57  A    between atoms: _156  and  _157
REMARK   58  A    between atoms: _157  and  _158
REMARK   59  A    between atoms: _167  and  _169
REMARK   60  A    between atoms: _169  and  _170
REMARK   61  A    between atoms: _169  and  _172
REMARK   62  A    between atoms: _175  and  _177
REMARK   63  A    between atoms: _177  and  _178
REMARK   64  A    between atoms: _177  and  _180
REMARK   65  A    between atoms: _180  and  _181
REMARK   66  A    between atoms: _181  and  _182
REMARK   67  A    between atoms: _182  and  _183
REMARK   68  A    between atoms: _193  and  _194
REMARK   69  A    between atoms: _199  and  _201
REMARK   70  A    between atoms: _201  and  _202
REMARK   71  A    between atoms: _201  and  _204
REMARK   72  A    between atoms: _206  and  _208
REMARK   73  A    between atoms: _208  and  _209
REMARK   74  A    between atoms: _208  and  _211
REMARK   75  A    between atoms: _211  and  _212
REMARK   76  A    between atoms: _212  and  _213
REMARK   77  A    between atoms: _217  and  _218
REMARK   78  A    between atoms: _224  and  _225
REMARK   79  A    between atoms: _230  and  _232
REMARK   80  A    between atoms: _232  and  _233
REMARK   81  A    between atoms: _232  and  _235
REMARK   82  A    between atoms: _235  and  _236
REMARK   83  A    between atoms: _236  and  _237
REMARK   84  A    between atoms: _240  and  _242
REMARK   85  A    between atoms: _242  and  _243
REMARK   86  A    between atoms: _242  and  _245
REMARK   87  A    between atoms: _245  and  _246
REMARK   88  A    between atoms: _248  and  _250
REMARK   89  A    between atoms: _250  and  _251
REMARK   90  A    between atoms: _250  and  _253
REMARK   91  A    between atoms: _253  and  _254
REMARK   92  A    between atoms: _257  and  _259
REMARK   93  A    between atoms: _259  and  _260
REMARK   94  A    between atoms: _259  and  _262
REMARK   95  A    between atoms: _264  and  _266
REMARK   96  A    between atoms: _266  and  _267
REMARK   97  A    between atoms: _266  and  _269
REMARK   98  A    between atoms: _269  and  _270
REMARK   99  A    between atoms: _273  and  _275
REMARK  100  A    between atoms: _275  and  _276
REMARK  101  A    between atoms: _275  and  _278
REMARK  102  A    between atoms: _278  and  _279
REMARK  103  A    between atoms: _282  and  _284
REMARK  104  A    between atoms: _284  and  _285
REMARK  105  A    between atoms: _284  and  _287
REMARK  106  A    between atoms: _287  and  _288
REMARK                            x       y       z     vdW  Elec       q    Type
REMARK                         _______ _______ _______ _____ _____    ______ ____
ROOT
ATOM      1  O   HOH     1      91.902  84.266 -48.397  0.00  0.00    +0.000 OA
ENDROOT
TORSDOF 0
REMARK  Name = ../refined-set-2016/4agn/4agn_pocket.pdb
REMARK  106 active torsions:
REMARK  status: ('A' for Active; 'I' for Inactive)
REMARK    1  A    between atoms: _1  and  _3
REMARK    2  A    between atoms: _3  and  _4
REMARK    3  A    between atoms: _3  and  _6
REMARK    4  A    between atoms: _6  and  _7
REMARK    5  A    between atoms: _12  and  _13
REMARK    6  A    between atoms: _15  and  _17
REMARK    7  A    between atoms: _17  and  _18
REMARK    8  A    between atoms: _17  and  _20
REMARK    9  A    between atoms: _20  and  _21
REMARK   10  A    between atoms: _27  and  _29
REMARK   11  A    between atoms: _29  and  _30
REMARK   12  A    between atoms: _29  and  _32
REMARK   13  A    between atoms: _32  and  _33
REMARK   14  A    between atoms: _33  and  _34
REMARK   15  A    between atoms: _34  and  _35
REMARK   16  A    between atoms: _44  and  _46
REMARK   17  A    between atoms: _46  and  _47
REMARK   18  A    between atoms: _46  and  _49
REMARK   19  A    between atoms: _49  and  _50
REMARK   20  A    between atoms: _50  and  _51
REMARK   21  A    between atoms: _56  and  _58
REMARK   22  A    between atoms: _58  and  _59
REMARK   23  A    between atoms: _58  and  _61
REMARK   24  A    between atoms: _61  and  _62
REMARK   25  A    between atoms: _65  and  _67
REMARK   26  A    between atoms: _67  and  _68
REMARK   27  A    between atoms: _67  and  _70
REMARK   28  A    between atoms: _70  and  _71
REMARK   29  A    between atoms: _81  and  _83
REMARK   30  A    between atoms: _83  and  _84
REMARK   31  A    between atoms: _83  and  _86
REMARK   32  A    between atoms: _89  and  _91
REMARK   33  A    between atoms: _91  and  _92
REMARK   34  A    between atoms: _91  and  _94
REMARK   35  A    between atoms: _94  and  _95
REMARK   36  A    between atoms: _98  and  _100
REMARK   37  A    between atoms: _100  and  _101
REMARK   38  A    between atoms: _100  and  _103
REMARK   39  A    between atoms: _103  and  _104
REMARK   40  A    between atoms: _106  and  _108
REMARK   41  A    between atoms: _108  and  _109
REMARK   42  A    between atoms: _108  and  _111
REMARK   43  A    between atoms: _111  and  _112
REMARK   44  A    between atoms: _116  and  _117
REMARK   45  A    between atoms: _123  and  _124
REMARK   46  A    between atoms: _130  and  _131
REMARK   47  A    between atoms: _136  and  _138
REMARK   48  A    between atoms: _138  and  _139
REMARK   49  A    between atoms: _141  and  _143
REMARK   50  A    between atoms: _143  and  _144
REMARK   51  A    between atoms: _143  and  _146
REMARK   52  A    between atoms: _146  and  _147
REMARK   53  A    between atoms: _150  and  _152
REMARK   54  A    between atoms: _152  and  _153
REMARK   55  A    between atoms: _152  and  _155
REMARK   56  A    between atoms: _155  and  _156
REMARK   57  A    between atoms: _156  and  _157
REMARK   58  A    between atoms: _157  and  _158
REMARK   59  A    between atoms: _167  and  _169
REMARK   60  A    between atoms: _169  and  _170
REMARK   61  A    between atoms: _169  and  _172
REMARK   62  A    between atoms: _175  and  _177
REMARK   63  A    between atoms: _177  and  _178
REMARK   64  A    between atoms: _177  and  _180
REMARK   65  A    between atoms: _180  and  _181
REMARK   66  A    between atoms: _181  and  _182
REMARK   67  A    between atoms: _182  and  _183
REMARK   68  A    between atoms: _193  and  _194
REMARK   69  A    between atoms: _199  and  _201
REMARK   70  A    between atoms: _201  and  _202
REMARK   71  A    between atoms: _201  and  _204
REMARK   72  A    between atoms: _206  and  _208
REMARK   73  A    between atoms: _208  and  _209
REMARK   74  A    between atoms: _208  and  _211
REMARK   75  A    between atoms: _211  and  _212
REMARK   76  A    between atoms: _212  and  _213
REMARK   77  A    between atoms: _217  and  _218
REMARK   78  A    between atoms: _224  and  _225
REMARK   79  A    between atoms: _230  and  _232
REMARK   80  A    between atoms: _232  and  _233
REMARK   81  A    between atoms: _232  and  _235
REMARK   82  A    between atoms: _235  and  _236
REMARK   83  A    between atoms: _236  and  _237
REMARK   84  A    between atoms: _240  and  _242
REMARK   85  A    between atoms: _242  and  _243
REMARK   86  A    between atoms: _242  and  _245
REMARK   87  A    between atoms: _245  and  _246
REMARK   88  A    between atoms: _248  and  _250
REMARK   89  A    between atoms: _250  and  _251
REMARK   90  A    between atoms: _250  and  _253
REMARK   91  A    between atoms: _253  and  _254
REMARK   92  A    between atoms: _257  and  _259
REMARK   93  A    between atoms: _259  and  _260
REMARK   94  A    between atoms: _259  and  _262
REMARK   95  A    between atoms: _264  and  _266
REMARK   96  A    between atoms: _266  and  _267
REMARK   97  A    between atoms: _266  and  _269
REMARK   98  A    between atoms: _269  and  _270
REMARK   99  A    between atoms: _273  and  _275
REMARK  100  A    between atoms: _275  and  _276
REMARK  101  A    between atoms: _275  and  _278
REMARK  102  A    between atoms: _278  and  _279
REMARK  103  A    between atoms: _282  and  _284
REMARK  104  A    between atoms: _284  and  _285
REMARK  105  A    between atoms: _284  and  _287
REMARK  106  A    between atoms: _287  and  _288
REMARK                            x       y       z     vdW  Elec       q    Type
REMARK                         _______ _______ _______ _____ _____    ______ ____
ROOT
ATOM      1  O   HOH     1      86.541  97.657 -44.960  0.00  0.00    +0.000 OA
ENDROOT
TORSDOF 0
REMARK  Name = ../refined-set-2016/4agn/4agn_pocket.pdb
REMARK  106 active torsions:
REMARK  status: ('A' for Active; 'I' for Inactive)
REMARK    1  A    between atoms: _1  and  _3
REMARK    2  A    between atoms: _3  and  _4
REMARK    3  A    between atoms: _3  and  _6
REMARK    4  A    between atoms: _6  and  _7
REMARK    5  A    between atoms: _12  and  _13
REMARK    6  A    between atoms: _15  and  _17
REMARK    7  A    between atoms: _17  and  _18
REMARK    8  A    between atoms: _17  and  _20
REMARK    9  A    between atoms: _20  and  _21
REMARK   10  A    between atoms: _27  and  _29
REMARK   11  A    between atoms: _29  and  _30
REMARK   12  A    between atoms: _29  and  _32
REMARK   13  A    between atoms: _32  and  _33
REMARK   14  A    between atoms: _33  and  _34
REMARK   15  A    between atoms: _34  and  _35
REMARK   16  A    between atoms: _44  and  _46
REMARK   17  A    between atoms: _46  and  _47
REMARK   18  A    between atoms: _46  and  _49
REMARK   19  A    between atoms: _49  and  _50
REMARK   20  A    between atoms: _50  and  _51
REMARK   21  A    between atoms: _56  and  _58
REMARK   22  A    between atoms: _58  and  _59
REMARK   23  A    between atoms: _58  and  _61
REMARK   24  A    between atoms: _61  and  _62
REMARK   25  A    between atoms: _65  and  _67
REMARK   26  A    between atoms: _67  and  _68
REMARK   27  A    between atoms: _67  and  _70
REMARK   28  A    between atoms: _70  and  _71
REMARK   29  A    between atoms: _81  and  _83
REMARK   30  A    between atoms: _83  and  _84
REMARK   31  A    between atoms: _83  and  _86
REMARK   32  A    between atoms: _89  and  _91
REMARK   33  A    between atoms: _91  and  _92
REMARK   34  A    between atoms: _91  and  _94
REMARK   35  A    between atoms: _94  and  _95
REMARK   36  A    between atoms: _98  and  _100
REMARK   37  A    between atoms: _100  and  _101
REMARK   38  A    between atoms: _100  and  _103
REMARK   39  A    between atoms: _103  and  _104
REMARK   40  A    between atoms: _106  and  _108
REMARK   41  A    between atoms: _108  and  _109
REMARK   42  A    between atoms: _108  and  _111
REMARK   43  A    between atoms: _111  and  _112
REMARK   44  A    between atoms: _116  and  _117
REMARK   45  A    between atoms: _123  and  _124
REMARK   46  A    between atoms: _130  and  _131
REMARK   47  A    between atoms: _136  and  _138
REMARK   48  A    between atoms: _138  and  _139
REMARK   49  A    between atoms: _141  and  _143
REMARK   50  A    between atoms: _143  and  _144
REMARK   51  A    between atoms: _143  and  _146
REMARK   52  A    between atoms: _146  and  _147
REMARK   53  A    between atoms: _150  and  _152
REMARK   54  A    between atoms: _152  and  _153
REMARK   55  A    between atoms: _152  and  _155
REMARK   56  A    between atoms: _155  and  _156
REMARK   57  A    between atoms: _156  and  _157
REMARK   58  A    between atoms: _157  and  _158
REMARK   59  A    between atoms: _167  and  _169
REMARK   60  A    between atoms: _169  and  _170
REMARK   61  A    between atoms: _169  and  _172
REMARK   62  A    between atoms: _175  and  _177
REMARK   63  A    between atoms: _177  and  _178
REMARK   64  A    between atoms: _177  and  _180
REMARK   65  A    between atoms: _180  and  _181
REMARK   66  A    between atoms: _181  and  _182
REMARK   67  A    between atoms: _182  and  _183
REMARK   68  A    between atoms: _193  and  _194
REMARK   69  A    between atoms: _199  and  _201
REMARK   70  A    between atoms: _201  and  _202
REMARK   71  A    between atoms: _201  and  _204
REMARK   72  A    between atoms: _206  and  _208
REMARK   73  A    between atoms: _208  and  _209
REMARK   74  A    between atoms: _208  and  _211
REMARK   75  A    between atoms: _211  and  _212
REMARK   76  A    between atoms: _212  and  _213
REMARK   77  A    between atoms: _217  and  _218
REMARK   78  A    between atoms: _224  and  _225
REMARK   79  A    between atoms: _230  and  _232
REMARK   80  A    between atoms: _232  and  _233
REMARK   81  A    between atoms: _232  and  _235
REMARK   82  A    between atoms: _235  and  _236
REMARK   83  A    between atoms: _236  and  _237
REMARK   84  A    between atoms: _240  and  _242
REMARK   85  A    between atoms: _242  and  _243
REMARK   86  A    between atoms: _242  and  _245
REMARK   87  A    between atoms: _245  and  _246
REMARK   88  A    between atoms: _248  and  _250
REMARK   89  A    between atoms: _250  and  _251
REMARK   90  A    between atoms: _250  and  _253
REMARK   91  A    between atoms: _253  and  _254
REMARK   92  A    between atoms: _257  and  _259
REMARK   93  A    between atoms: _259  and  _260
REMARK   94  A    between atoms: _259  and  _262
REMARK   95  A    between atoms: _264  and  _266
REMARK   96  A    between atoms: _266  and  _267
REMARK   97  A    between atoms: _266  and  _269
REMARK   98  A    between atoms: _269  and  _270
REMARK   99  A    between atoms: _273  and  _275
REMARK  100  A    between atoms: _275  and  _276
REMARK  101  A    between atoms: _275  and  _278
REMARK  102  A    between atoms: _278  and  _279
REMARK  103  A    between atoms: _282  and  _284
REMARK  104  A    between atoms: _284  and  _285
REMARK  105  A    between atoms: _284  and  _287
REMARK  106  A    between atoms: _287  and  _288
REMARK                            x       y       z     vdW  Elec       q    Type
REMARK                         _______ _______ _______ _____ _____    ______ ____
ROOT
ATOM      1  O   HOH     1      86.516 101.338 -43.561  0.00  0.00    +0.000 OA
ENDROOT
TORSDOF 0
REMARK  Name = ../refined-set-2016/4agn/4agn_pocket.pdb
REMARK  106 active torsions:
REMARK  status: ('A' for Active; 'I' for Inactive)
REMARK    1  A    between atoms: _1  and  _3
REMARK    2  A    between atoms: _3  and  _4
REMARK    3  A    between atoms: _3  and  _6
REMARK    4  A    between atoms: _6  and  _7
REMARK    5  A    between atoms: _12  and  _13
REMARK    6  A    between atoms: _15  and  _17
REMARK    7  A    between atoms: _17  and  _18
REMARK    8  A    between atoms: _17  and  _20
REMARK    9  A    between atoms: _20  and  _21
REMARK   10  A    between atoms: _27  and  _29
REMARK   11  A    between atoms: _29  and  _30
REMARK   12  A    between atoms: _29  and  _32
REMARK   13  A    between atoms: _32  and  _33
REMARK   14  A    between atoms: _33  and  _34
REMARK   15  A    between atoms: _34  and  _35
REMARK   16  A    between atoms: _44  and  _46
REMARK   17  A    between atoms: _46  and  _47
REMARK   18  A    between atoms: _46  and  _49
REMARK   19  A    between atoms: _49  and  _50
REMARK   20  A    between atoms: _50  and  _51
REMARK   21  A    between atoms: _56  and  _58
REMARK   22  A    between atoms: _58  and  _59
REMARK   23  A    between atoms: _58  and  _61
REMARK   24  A    between atoms: _61  and  _62
REMARK   25  A    between atoms: _65  and  _67
REMARK   26  A    between atoms: _67  and  _68
REMARK   27  A    between atoms: _67  and  _70
REMARK   28  A    between atoms: _70  and  _71
REMARK   29  A    between atoms: _81  and  _83
REMARK   30  A    between atoms: _83  and  _84
REMARK   31  A    between atoms: _83  and  _86
REMARK   32  A    between atoms: _89  and  _91
REMARK   33  A    between atoms: _91  and  _92
REMARK   34  A    between atoms: _91  and  _94
REMARK   35  A    between atoms: _94  and  _95
REMARK   36  A    between atoms: _98  and  _100
REMARK   37  A    between atoms: _100  and  _101
REMARK   38  A    between atoms: _100  and  _103
REMARK   39  A    between atoms: _103  and  _104
REMARK   40  A    between atoms: _106  and  _108
REMARK   41  A    between atoms: _108  and  _109
REMARK   42  A    between atoms: _108  and  _111
REMARK   43  A    between atoms: _111  and  _112
REMARK   44  A    between atoms: _116  and  _117
REMARK   45  A    between atoms: _123  and  _124
REMARK   46  A    between atoms: _130  and  _131
REMARK   47  A    between atoms: _136  and  _138
REMARK   48  A    between atoms: _138  and  _139
REMARK   49  A    between atoms: _141  and  _143
REMARK   50  A    between atoms: _143  and  _144
REMARK   51  A    between atoms: _143  and  _146
REMARK   52  A    between atoms: _146  and  _147
REMARK   53  A    between atoms: _150  and  _152
REMARK   54  A    between atoms: _152  and  _153
REMARK   55  A    between atoms: _152  and  _155
REMARK   56  A    between atoms: _155  and  _156
REMARK   57  A    between atoms: _156  and  _157
REMARK   58  A    between atoms: _157  and  _158
REMARK   59  A    between atoms: _167  and  _169
REMARK   60  A    between atoms: _169  and  _170
REMARK   61  A    between atoms: _169  and  _172
REMARK   62  A    between atoms: _175  and  _177
REMARK   63  A    between atoms: _177  and  _178
REMARK   64  A    between atoms: _177  and  _180
REMARK   65  A    between atoms: _180  and  _181
REMARK   66  A    between atoms: _181  and  _182
REMARK   67  A    between atoms: _182  and  _183
REMARK   68  A    between atoms: _193  and  _194
REMARK   69  A    between atoms: _199  and  _201
REMARK   70  A    between atoms: _201  and  _202
REMARK   71  A    between atoms: _201  and  _204
REMARK   72  A    between atoms: _206  and  _208
REMARK   73  A    between atoms: _208  and  _209
REMARK   74  A    between atoms: _208  and  _211
REMARK   75  A    between atoms: _211  and  _212
REMARK   76  A    between atoms: _212  and  _213
REMARK   77  A    between atoms: _217  and  _218
REMARK   78  A    between atoms: _224  and  _225
REMARK   79  A    between atoms: _230  and  _232
REMARK   80  A    between atoms: _232  and  _233
REMARK   81  A    between atoms: _232  and  _235
REMARK   82  A    between atoms: _235  and  _236
REMARK   83  A    between atoms: _236  and  _237
REMARK   84  A    between atoms: _240  and  _242
REMARK   85  A    between atoms: _242  and  _243
REMARK   86  A    between atoms: _242  and  _245
REMARK   87  A    between atoms: _245  and  _246
REMARK   88  A    between atoms: _248  and  _250
REMARK   89  A    between atoms: _250  and  _251
REMARK   90  A    between atoms: _250  and  _253
REMARK   91  A    between atoms: _253  and  _254
REMARK   92  A    between atoms: _257  and  _259
REMARK   93  A    between atoms: _259  and  _260
REMARK   94  A    between atoms: _259  and  _262
REMARK   95  A    between atoms: _264  and  _266
REMARK   96  A    between atoms: _266  and  _267
REMARK   97  A    between atoms: _266  and  _269
REMARK   98  A    between atoms: _269  and  _270
REMARK   99  A    between atoms: _273  and  _275
REMARK  100  A    between atoms: _275  and  _276
REMARK  101  A    between atoms: _275  and  _278
REMARK  102  A    between atoms: _278  and  _279
REMARK  103  A    between atoms: _282  and  _284
REMARK  104  A    between atoms: _284  and  _285
REMARK  105  A    between atoms: _284  and  _287
REMARK  106  A    between atoms: _287  and  _288
REMARK                            x       y       z     vdW  Elec       q    Type
REMARK                         _______ _______ _______ _____ _____    ______ ____
ROOT
ATOM      1  O   HOH     1      90.607  87.707 -40.992  0.00  0.00    +0.000 OA
ENDROOT
TORSDOF 0
REMARK  Name = ../refined-set-2016/4agn/4agn_pocket.pdb
REMARK  106 active torsions:
REMARK  status: ('A' for Active; 'I' for Inactive)
REMARK    1  A    between atoms: _1  and  _3
REMARK    2  A    between atoms: _3  and  _4
REMARK    3  A    between atoms: _3  and  _6
REMARK    4  A    between atoms: _6  and  _7
REMARK    5  A    between atoms: _12  and  _13
REMARK    6  A    between atoms: _15  and  _17
REMARK    7  A    between atoms: _17  and  _18
REMARK    8  A    between atoms: _17  and  _20
REMARK    9  A    between atoms: _20  and  _21
REMARK   10  A    between atoms: _27  and  _29
REMARK   11  A    between atoms: _29  and  _30
REMARK   12  A    between atoms: _29  and  _32
REMARK   13  A    between atoms: _32  and  _33
REMARK   14  A    between atoms: _33  and  _34
REMARK   15  A    between atoms: _34  and  _35
REMARK   16  A    between atoms: _44  and  _46
REMARK   17  A    between atoms: _46  and  _47
REMARK   18  A    between atoms: _46  and  _49
REMARK   19  A    between atoms: _49  and  _50
REMARK   20  A    between atoms: _50  and  _51
REMARK   21  A    between atoms: _56  and  _58
REMARK   22  A    between atoms: _58  and  _59
REMARK   23  A    between atoms: _58  and  _61
REMARK   24  A    between atoms: _61  and  _62
REMARK   25  A    between atoms: _65  and  _67
REMARK   26  A    between atoms: _67  and  _68
REMARK   27  A    between atoms: _67  and  _70
REMARK   28  A    between atoms: _70  and  _71
REMARK   29  A    between atoms: _81  and  _83
REMARK   30  A    between atoms: _83  and  _84
REMARK   31  A    between atoms: _83  and  _86
REMARK   32  A    between atoms: _89  and  _91
REMARK   33  A    between atoms: _91  and  _92
REMARK   34  A    between atoms: _91  and  _94
REMARK   35  A    between atoms: _94  and  _95
REMARK   36  A    between atoms: _98  and  _100
REMARK   37  A    between atoms: _100  and  _101
REMARK   38  A    between atoms: _100  and  _103
REMARK   39  A    between atoms: _103  and  _104
REMARK   40  A    between atoms: _106  and  _108
REMARK   41  A    between atoms: _108  and  _109
REMARK   42  A    between atoms: _108  and  _111
REMARK   43  A    between atoms: _111  and  _112
REMARK   44  A    between atoms: _116  and  _117
REMARK   45  A    between atoms: _123  and  _124
REMARK   46  A    between atoms: _130  and  _131
REMARK   47  A    between atoms: _136  and  _138
REMARK   48  A    between atoms: _138  and  _139
REMARK   49  A    between atoms: _141  and  _143
REMARK   50  A    between atoms: _143  and  _144
REMARK   51  A    between atoms: _143  and  _146
REMARK   52  A    between atoms: _146  and  _147
REMARK   53  A    between atoms: _150  and  _152
REMARK   54  A    between atoms: _152  and  _153
REMARK   55  A    between atoms: _152  and  _155
REMARK   56  A    between atoms: _155  and  _156
REMARK   57  A    between atoms: _156  and  _157
REMARK   58  A    between atoms: _157  and  _158
REMARK   59  A    between atoms: _167  and  _169
REMARK   60  A    between atoms: _169  and  _170
REMARK   61  A    between atoms: _169  and  _172
REMARK   62  A    between atoms: _175  and  _177
REMARK   63  A    between atoms: _177  and  _178
REMARK   64  A    between atoms: _177  and  _180
REMARK   65  A    between atoms: _180  and  _181
REMARK   66  A    between atoms: _181  and  _182
REMARK   67  A    between atoms: _182  and  _183
REMARK   68  A    between atoms: _193  and  _194
REMARK   69  A    between atoms: _199  and  _201
REMARK   70  A    between atoms: _201  and  _202
REMARK   71  A    between atoms: _201  and  _204
REMARK   72  A    between atoms: _206  and  _208
REMARK   73  A    between atoms: _208  and  _209
REMARK   74  A    between atoms: _208  and  _211
REMARK   75  A    between atoms: _211  and  _212
REMARK   76  A    between atoms: _212  and  _213
REMARK   77  A    between atoms: _217  and  _218
REMARK   78  A    between atoms: _224  and  _225
REMARK   79  A    between atoms: _230  and  _232
REMARK   80  A    between atoms: _232  and  _233
REMARK   81  A    between atoms: _232  and  _235
REMARK   82  A    between atoms: _235  and  _236
REMARK   83  A    between atoms: _236  and  _237
REMARK   84  A    between atoms: _240  and  _242
REMARK   85  A    between atoms: _242  and  _243
REMARK   86  A    between atoms: _242  and  _245
REMARK   87  A    between atoms: _245  and  _246
REMARK   88  A    between atoms: _248  and  _250
REMARK   89  A    between atoms: _250  and  _251
REMARK   90  A    between atoms: _250  and  _253
REMARK   91  A    between atoms: _253  and  _254
REMARK   92  A    between atoms: _257  and  _259
REMARK   93  A    between atoms: _259  and  _260
REMARK   94  A    between atoms: _259  and  _262
REMARK   95  A    between atoms: _264  and  _266
REMARK   96  A    between atoms: _266  and  _267
REMARK   97  A    between atoms: _266  and  _269
REMARK   98  A    between atoms: _269  and  _270
REMARK   99  A    between atoms: _273  and  _275
REMARK  100  A    between atoms: _275  and  _276
REMARK  101  A    between atoms: _275  and  _278
REMARK  102  A    between atoms: _278  and  _279
REMARK  103  A    between atoms: _282  and  _284
REMARK  104  A    between atoms: _284  and  _285
REMARK  105  A    between atoms: _284  and  _287
REMARK  106  A    between atoms: _287  and  _288
REMARK                            x       y       z     vdW  Elec       q    Type
REMARK                         _______ _______ _______ _____ _____    ______ ____
ROOT
ATOM      1  O   HOH     1      92.451  90.156 -41.399  0.00  0.00    +0.000 OA
ENDROOT
TORSDOF 0
REMARK  Name = ../refined-set-2016/4agn/4agn_pocket.pdb
REMARK  106 active torsions:
REMARK  status: ('A' for Active; 'I' for Inactive)
REMARK    1  A    between atoms: _1  and  _3
REMARK    2  A    between atoms: _3  and  _4
REMARK    3  A    between atoms: _3  and  _6
REMARK    4  A    between atoms: _6  and  _7
REMARK    5  A    between atoms: _12  and  _13
REMARK    6  A    between atoms: _15  and  _17
REMARK    7  A    between atoms: _17  and  _18
REMARK    8  A    between atoms: _17  and  _20
REMARK    9  A    between atoms: _20  and  _21
REMARK   10  A    between atoms: _27  and  _29
REMARK   11  A    between atoms: _29  and  _30
REMARK   12  A    between atoms: _29  and  _32
REMARK   13  A    between atoms: _32  and  _33
REMARK   14  A    between atoms: _33  and  _34
REMARK   15  A    between atoms: _34  and  _35
REMARK   16  A    between atoms: _44  and  _46
REMARK   17  A    between atoms: _46  and  _47
REMARK   18  A    between atoms: _46  and  _49
REMARK   19  A    between atoms: _49  and  _50
REMARK   20  A    between atoms: _50  and  _51
REMARK   21  A    between atoms: _56  and  _58
REMARK   22  A    between atoms: _58  and  _59
REMARK   23  A    between atoms: _58  and  _61
REMARK   24  A    between atoms: _61  and  _62
REMARK   25  A    between atoms: _65  and  _67
REMARK   26  A    between atoms: _67  and  _68
REMARK   27  A    between atoms: _67  and  _70
REMARK   28  A    between atoms: _70  and  _71
REMARK   29  A    between atoms: _81  and  _83
REMARK   30  A    between atoms: _83  and  _84
REMARK   31  A    between atoms: _83  and  _86
REMARK   32  A    between atoms: _89  and  _91
REMARK   33  A    between atoms: _91  and  _92
REMARK   34  A    between atoms: _91  and  _94
REMARK   35  A    between atoms: _94  and  _95
REMARK   36  A    between atoms: _98  and  _100
REMARK   37  A    between atoms: _100  and  _101
REMARK   38  A    between atoms: _100  and  _103
REMARK   39  A    between atoms: _103  and  _104
REMARK   40  A    between atoms: _106  and  _108
REMARK   41  A    between atoms: _108  and  _109
REMARK   42  A    between atoms: _108  and  _111
REMARK   43  A    between atoms: _111  and  _112
REMARK   44  A    between atoms: _116  and  _117
REMARK   45  A    between atoms: _123  and  _124
REMARK   46  A    between atoms: _130  and  _131
REMARK   47  A    between atoms: _136  and  _138
REMARK   48  A    between atoms: _138  and  _139
REMARK   49  A    between atoms: _141  and  _143
REMARK   50  A    between atoms: _143  and  _144
REMARK   51  A    between atoms: _143  and  _146
REMARK   52  A    between atoms: _146  and  _147
REMARK   53  A    between atoms: _150  and  _152
REMARK   54  A    between atoms: _152  and  _153
REMARK   55  A    between atoms: _152  and  _155
REMARK   56  A    between atoms: _155  and  _156
REMARK   57  A    between atoms: _156  and  _157
REMARK   58  A    between atoms: _157  and  _158
REMARK   59  A    between atoms: _167  and  _169
REMARK   60  A    between atoms: _169  and  _170
REMARK   61  A    between atoms: _169  and  _172
REMARK   62  A    between atoms: _175  and  _177
REMARK   63  A    between atoms: _177  and  _178
REMARK   64  A    between atoms: _177  and  _180
REMARK   65  A    between atoms: _180  and  _181
REMARK   66  A    between atoms: _181  and  _182
REMARK   67  A    between atoms: _182  and  _183
REMARK   68  A    between atoms: _193  and  _194
REMARK   69  A    between atoms: _199  and  _201
REMARK   70  A    between atoms: _201  and  _202
REMARK   71  A    between atoms: _201  and  _204
REMARK   72  A    between atoms: _206  and  _208
REMARK   73  A    between atoms: _208  and  _209
REMARK   74  A    between atoms: _208  and  _211
REMARK   75  A    between atoms: _211  and  _212
REMARK   76  A    between atoms: _212  and  _213
REMARK   77  A    between atoms: _217  and  _218
REMARK   78  A    between atoms: _224  and  _225
REMARK   79  A    between atoms: _230  and  _232
REMARK   80  A    between atoms: _232  and  _233
REMARK   81  A    between atoms: _232  and  _235
REMARK   82  A    between atoms: _235  and  _236
REMARK   83  A    between atoms: _236  and  _237
REMARK   84  A    between atoms: _240  and  _242
REMARK   85  A    between atoms: _242  and  _243
REMARK   86  A    between atoms: _242  and  _245
REMARK   87  A    between atoms: _245  and  _246
REMARK   88  A    between atoms: _248  and  _250
REMARK   89  A    between atoms: _250  and  _251
REMARK   90  A    between atoms: _250  and  _253
REMARK   91  A    between atoms: _253  and  _254
REMARK   92  A    between atoms: _257  and  _259
REMARK   93  A    between atoms: _259  and  _260
REMARK   94  A    between atoms: _259  and  _262
REMARK   95  A    between atoms: _264  and  _266
REMARK   96  A    between atoms: _266  and  _267
REMARK   97  A    between atoms: _266  and  _269
REMARK   98  A    between atoms: _269  and  _270
REMARK   99  A    between atoms: _273  and  _275
REMARK  100  A    between atoms: _275  and  _276
REMARK  101  A    between atoms: _275  and  _278
REMARK  102  A    between atoms: _278  and  _279
REMARK  103  A    between atoms: _282  and  _284
REMARK  104  A    between atoms: _284  and  _285
REMARK  105  A    between atoms: _284  and  _287
REMARK  106  A    between atoms: _287  and  _288
REMARK                            x       y       z     vdW  Elec       q    Type
REMARK                         _______ _______ _______ _____ _____    ______ ____
ROOT
ATOM      1  O   HOH     1      94.440  91.695 -41.839  0.00  0.00    +0.000 OA
ENDROOT
TORSDOF 0
REMARK  Name = ../refined-set-2016/4agn/4agn_pocket.pdb
REMARK  106 active torsions:
REMARK  status: ('A' for Active; 'I' for Inactive)
REMARK    1  A    between atoms: _1  and  _3
REMARK    2  A    between atoms: _3  and  _4
REMARK    3  A    between atoms: _3  and  _6
REMARK    4  A    between atoms: _6  and  _7
REMARK    5  A    between atoms: _12  and  _13
REMARK    6  A    between atoms: _15  and  _17
REMARK    7  A    between atoms: _17  and  _18
REMARK    8  A    between atoms: _17  and  _20
REMARK    9  A    between atoms: _20  and  _21
REMARK   10  A    between atoms: _27  and  _29
REMARK   11  A    between atoms: _29  and  _30
REMARK   12  A    between atoms: _29  and  _32
REMARK   13  A    between atoms: _32  and  _33
REMARK   14  A    between atoms: _33  and  _34
REMARK   15  A    between atoms: _34  and  _35
REMARK   16  A    between atoms: _44  and  _46
REMARK   17  A    between atoms: _46  and  _47
REMARK   18  A    between atoms: _46  and  _49
REMARK   19  A    between atoms: _49  and  _50
REMARK   20  A    between atoms: _50  and  _51
REMARK   21  A    between atoms: _56  and  _58
REMARK   22  A    between atoms: _58  and  _59
REMARK   23  A    between atoms: _58  and  _61
REMARK   24  A    between atoms: _61  and  _62
REMARK   25  A    between atoms: _65  and  _67
REMARK   26  A    between atoms: _67  and  _68
REMARK   27  A    between atoms: _67  and  _70
REMARK   28  A    between atoms: _70  and  _71
REMARK   29  A    between atoms: _81  and  _83
REMARK   30  A    between atoms: _83  and  _84
REMARK   31  A    between atoms: _83  and  _86
REMARK   32  A    between atoms: _89  and  _91
REMARK   33  A    between atoms: _91  and  _92
REMARK   34  A    between atoms: _91  and  _94
REMARK   35  A    between atoms: _94  and  _95
REMARK   36  A    between atoms: _98  and  _100
REMARK   37  A    between atoms: _100  and  _101
REMARK   38  A    between atoms: _100  and  _103
REMARK   39  A    between atoms: _103  and  _104
REMARK   40  A    between atoms: _106  and  _108
REMARK   41  A    between atoms: _108  and  _109
REMARK   42  A    between atoms: _108  and  _111
REMARK   43  A    between atoms: _111  and  _112
REMARK   44  A    between atoms: _116  and  _117
REMARK   45  A    between atoms: _123  and  _124
REMARK   46  A    between atoms: _130  and  _131
REMARK   47  A    between atoms: _136  and  _138
REMARK   48  A    between atoms: _138  and  _139
REMARK   49  A    between atoms: _141  and  _143
REMARK   50  A    between atoms: _143  and  _144
REMARK   51  A    between atoms: _143  and  _146
REMARK   52  A    between atoms: _146  and  _147
REMARK   53  A    between atoms: _150  and  _152
REMARK   54  A    between atoms: _152  and  _153
REMARK   55  A    between atoms: _152  and  _155
REMARK   56  A    between atoms: _155  and  _156
REMARK   57  A    between atoms: _156  and  _157
REMARK   58  A    between atoms: _157  and  _158
REMARK   59  A    between atoms: _167  and  _169
REMARK   60  A    between atoms: _169  and  _170
REMARK   61  A    between atoms: _169  and  _172
REMARK   62  A    between atoms: _175  and  _177
REMARK   63  A    between atoms: _177  and  _178
REMARK   64  A    between atoms: _177  and  _180
REMARK   65  A    between atoms: _180  and  _181
REMARK   66  A    between atoms: _181  and  _182
REMARK   67  A    between atoms: _182  and  _183
REMARK   68  A    between atoms: _193  and  _194
REMARK   69  A    between atoms: _199  and  _201
REMARK   70  A    between atoms: _201  and  _202
REMARK   71  A    between atoms: _201  and  _204
REMARK   72  A    between atoms: _206  and  _208
REMARK   73  A    between atoms: _208  and  _209
REMARK   74  A    between atoms: _208  and  _211
REMARK   75  A    between atoms: _211  and  _212
REMARK   76  A    between atoms: _212  and  _213
REMARK   77  A    between atoms: _217  and  _218
REMARK   78  A    between atoms: _224  and  _225
REMARK   79  A    between atoms: _230  and  _232
REMARK   80  A    between atoms: _232  and  _233
REMARK   81  A    between atoms: _232  and  _235
REMARK   82  A    between atoms: _235  and  _236
REMARK   83  A    between atoms: _236  and  _237
REMARK   84  A    between atoms: _240  and  _242
REMARK   85  A    between atoms: _242  and  _243
REMARK   86  A    between atoms: _242  and  _245
REMARK   87  A    between atoms: _245  and  _246
REMARK   88  A    between atoms: _248  and  _250
REMARK   89  A    between atoms: _250  and  _251
REMARK   90  A    between atoms: _250  and  _253
REMARK   91  A    between atoms: _253  and  _254
REMARK   92  A    between atoms: _257  and  _259
REMARK   93  A    between atoms: _259  and  _260
REMARK   94  A    between atoms: _259  and  _262
REMARK   95  A    between atoms: _264  and  _266
REMARK   96  A    between atoms: _266  and  _267
REMARK   97  A    between atoms: _266  and  _269
REMARK   98  A    between atoms: _269  and  _270
REMARK   99  A    between atoms: _273  and  _275
REMARK  100  A    between atoms: _275  and  _276
REMARK  101  A    between atoms: _275  and  _278
REMARK  102  A    between atoms: _278  and  _279
REMARK  103  A    between atoms: _282  and  _284
REMARK  104  A    between atoms: _284  and  _285
REMARK  105  A    between atoms: _284  and  _287
REMARK  106  A    between atoms: _287  and  _288
REMARK                            x       y       z     vdW  Elec       q    Type
REMARK                         _______ _______ _______ _____ _____    ______ ____
ROOT
ATOM      1  O   HOH     1      84.863  88.862 -46.303  0.00  0.00    +0.000 OA
ENDROOT
TORSDOF 0
REMARK  Name = ../refined-set-2016/4agn/4agn_pocket.pdb
REMARK  106 active torsions:
REMARK  status: ('A' for Active; 'I' for Inactive)
REMARK    1  A    between atoms: _1  and  _3
REMARK    2  A    between atoms: _3  and  _4
REMARK    3  A    between atoms: _3  and  _6
REMARK    4  A    between atoms: _6  and  _7
REMARK    5  A    between atoms: _12  and  _13
REMARK    6  A    between atoms: _15  and  _17
REMARK    7  A    between atoms: _17  and  _18
REMARK    8  A    between atoms: _17  and  _20
REMARK    9  A    between atoms: _20  and  _21
REMARK   10  A    between atoms: _27  and  _29
REMARK   11  A    between atoms: _29  and  _30
REMARK   12  A    between atoms: _29  and  _32
REMARK   13  A    between atoms: _32  and  _33
REMARK   14  A    between atoms: _33  and  _34
REMARK   15  A    between atoms: _34  and  _35
REMARK   16  A    between atoms: _44  and  _46
REMARK   17  A    between atoms: _46  and  _47
REMARK   18  A    between atoms: _46  and  _49
REMARK   19  A    between atoms: _49  and  _50
REMARK   20  A    between atoms: _50  and  _51
REMARK   21  A    between atoms: _56  and  _58
REMARK   22  A    between atoms: _58  and  _59
REMARK   23  A    between atoms: _58  and  _61
REMARK   24  A    between atoms: _61  and  _62
REMARK   25  A    between atoms: _65  and  _67
REMARK   26  A    between atoms: _67  and  _68
REMARK   27  A    between atoms: _67  and  _70
REMARK   28  A    between atoms: _70  and  _71
REMARK   29  A    between atoms: _81  and  _83
REMARK   30  A    between atoms: _83  and  _84
REMARK   31  A    between atoms: _83  and  _86
REMARK   32  A    between atoms: _89  and  _91
REMARK   33  A    between atoms: _91  and  _92
REMARK   34  A    between atoms: _91  and  _94
REMARK   35  A    between atoms: _94  and  _95
REMARK   36  A    between atoms: _98  and  _100
REMARK   37  A    between atoms: _100  and  _101
REMARK   38  A    between atoms: _100  and  _103
REMARK   39  A    between atoms: _103  and  _104
REMARK   40  A    between atoms: _106  and  _108
REMARK   41  A    between atoms: _108  and  _109
REMARK   42  A    between atoms: _108  and  _111
REMARK   43  A    between atoms: _111  and  _112
REMARK   44  A    between atoms: _116  and  _117
REMARK   45  A    between atoms: _123  and  _124
REMARK   46  A    between atoms: _130  and  _131
REMARK   47  A    between atoms: _136  and  _138
REMARK   48  A    between atoms: _138  and  _139
REMARK   49  A    between atoms: _141  and  _143
REMARK   50  A    between atoms: _143  and  _144
REMARK   51  A    between atoms: _143  and  _146
REMARK   52  A    between atoms: _146  and  _147
REMARK   53  A    between atoms: _150  and  _152
REMARK   54  A    between atoms: _152  and  _153
REMARK   55  A    between atoms: _152  and  _155
REMARK   56  A    between atoms: _155  and  _156
REMARK   57  A    between atoms: _156  and  _157
REMARK   58  A    between atoms: _157  and  _158
REMARK   59  A    between atoms: _167  and  _169
REMARK   60  A    between atoms: _169  and  _170
REMARK   61  A    between atoms: _169  and  _172
REMARK   62  A    between atoms: _175  and  _177
REMARK   63  A    between atoms: _177  and  _178
REMARK   64  A    between atoms: _177  and  _180
REMARK   65  A    between atoms: _180  and  _181
REMARK   66  A    between atoms: _181  and  _182
REMARK   67  A    between atoms: _182  and  _183
REMARK   68  A    between atoms: _193  and  _194
REMARK   69  A    between atoms: _199  and  _201
REMARK   70  A    between atoms: _201  and  _202
REMARK   71  A    between atoms: _201  and  _204
REMARK   72  A    between atoms: _206  and  _208
REMARK   73  A    between atoms: _208  and  _209
REMARK   74  A    between atoms: _208  and  _211
REMARK   75  A    between atoms: _211  and  _212
REMARK   76  A    between atoms: _212  and  _213
REMARK   77  A    between atoms: _217  and  _218
REMARK   78  A    between atoms: _224  and  _225
REMARK   79  A    between atoms: _230  and  _232
REMARK   80  A    between atoms: _232  and  _233
REMARK   81  A    between atoms: _232  and  _235
REMARK   82  A    between atoms: _235  and  _236
REMARK   83  A    between atoms: _236  and  _237
REMARK   84  A    between atoms: _240  and  _242
REMARK   85  A    between atoms: _242  and  _243
REMARK   86  A    between atoms: _242  and  _245
REMARK   87  A    between atoms: _245  and  _246
REMARK   88  A    between atoms: _248  and  _250
REMARK   89  A    between atoms: _250  and  _251
REMARK   90  A    between atoms: _250  and  _253
REMARK   91  A    between atoms: _253  and  _254
REMARK   92  A    between atoms: _257  and  _259
REMARK   93  A    between atoms: _259  and  _260
REMARK   94  A    between atoms: _259  and  _262
REMARK   95  A    between atoms: _264  and  _266
REMARK   96  A    between atoms: _266  and  _267
REMARK   97  A    between atoms: _266  and  _269
REMARK   98  A    between atoms: _269  and  _270
REMARK   99  A    between atoms: _273  and  _275
REMARK  100  A    between atoms: _275  and  _276
REMARK  101  A    between atoms: _275  and  _278
REMARK  102  A    between atoms: _278  and  _279
REMARK  103  A    between atoms: _282  and  _284
REMARK  104  A    between atoms: _284  and  _285
REMARK  105  A    between atoms: _284  and  _287
REMARK  106  A    between atoms: _287  and  _288
REMARK                            x       y       z     vdW  Elec       q    Type
REMARK                         _______ _______ _______ _____ _____    ______ ____
ROOT
ATOM      1  O   HOH     1      84.493  90.488 -44.309  0.00  0.00    +0.000 OA
ENDROOT
TORSDOF 0
REMARK  Name = ../refined-set-2016/4agn/4agn_pocket.pdb
REMARK  106 active torsions:
REMARK  status: ('A' for Active; 'I' for Inactive)
REMARK    1  A    between atoms: _1  and  _3
REMARK    2  A    between atoms: _3  and  _4
REMARK    3  A    between atoms: _3  and  _6
REMARK    4  A    between atoms: _6  and  _7
REMARK    5  A    between atoms: _12  and  _13
REMARK    6  A    between atoms: _15  and  _17
REMARK    7  A    between atoms: _17  and  _18
REMARK    8  A    between atoms: _17  and  _20
REMARK    9  A    between atoms: _20  and  _21
REMARK   10  A    between atoms: _27  and  _29
REMARK   11  A    between atoms: _29  and  _30
REMARK   12  A    between atoms: _29  and  _32
REMARK   13  A    between atoms: _32  and  _33
REMARK   14  A    between atoms: _33  and  _34
REMARK   15  A    between atoms: _34  and  _35
REMARK   16  A    between atoms: _44  and  _46
REMARK   17  A    between atoms: _46  and  _47
REMARK   18  A    between atoms: _46  and  _49
REMARK   19  A    between atoms: _49  and  _50
REMARK   20  A    between atoms: _50  and  _51
REMARK   21  A    between atoms: _56  and  _58
REMARK   22  A    between atoms: _58  and  _59
REMARK   23  A    between atoms: _58  and  _61
REMARK   24  A    between atoms: _61  and  _62
REMARK   25  A    between atoms: _65  and  _67
REMARK   26  A    between atoms: _67  and  _68
REMARK   27  A    between atoms: _67  and  _70
REMARK   28  A    between atoms: _70  and  _71
REMARK   29  A    between atoms: _81  and  _83
REMARK   30  A    between atoms: _83  and  _84
REMARK   31  A    between atoms: _83  and  _86
REMARK   32  A    between atoms: _89  and  _91
REMARK   33  A    between atoms: _91  and  _92
REMARK   34  A    between atoms: _91  and  _94
REMARK   35  A    between atoms: _94  and  _95
REMARK   36  A    between atoms: _98  and  _100
REMARK   37  A    between atoms: _100  and  _101
REMARK   38  A    between atoms: _100  and  _103
REMARK   39  A    between atoms: _103  and  _104
REMARK   40  A    between atoms: _106  and  _108
REMARK   41  A    between atoms: _108  and  _109
REMARK   42  A    between atoms: _108  and  _111
REMARK   43  A    between atoms: _111  and  _112
REMARK   44  A    between atoms: _116  and  _117
REMARK   45  A    between atoms: _123  and  _124
REMARK   46  A    between atoms: _130  and  _131
REMARK   47  A    between atoms: _136  and  _138
REMARK   48  A    between atoms: _138  and  _139
REMARK   49  A    between atoms: _141  and  _143
REMARK   50  A    between atoms: _143  and  _144
REMARK   51  A    between atoms: _143  and  _146
REMARK   52  A    between atoms: _146  and  _147
REMARK   53  A    between atoms: _150  and  _152
REMARK   54  A    between atoms: _152  and  _153
REMARK   55  A    between atoms: _152  and  _155
REMARK   56  A    between atoms: _155  and  _156
REMARK   57  A    between atoms: _156  and  _157
REMARK   58  A    between atoms: _157  and  _158
REMARK   59  A    between atoms: _167  and  _169
REMARK   60  A    between atoms: _169  and  _170
REMARK   61  A    between atoms: _169  and  _172
REMARK   62  A    between atoms: _175  and  _177
REMARK   63  A    between atoms: _177  and  _178
REMARK   64  A    between atoms: _177  and  _180
REMARK   65  A    between atoms: _180  and  _181
REMARK   66  A    between atoms: _181  and  _182
REMARK   67  A    between atoms: _182  and  _183
REMARK   68  A    between atoms: _193  and  _194
REMARK   69  A    between atoms: _199  and  _201
REMARK   70  A    between atoms: _201  and  _202
REMARK   71  A    between atoms: _201  and  _204
REMARK   72  A    between atoms: _206  and  _208
REMARK   73  A    between atoms: _208  and  _209
REMARK   74  A    between atoms: _208  and  _211
REMARK   75  A    between atoms: _211  and  _212
REMARK   76  A    between atoms: _212  and  _213
REMARK   77  A    between atoms: _217  and  _218
REMARK   78  A    between atoms: _224  and  _225
REMARK   79  A    between atoms: _230  and  _232
REMARK   80  A    between atoms: _232  and  _233
REMARK   81  A    between atoms: _232  and  _235
REMARK   82  A    between atoms: _235  and  _236
REMARK   83  A    between atoms: _236  and  _237
REMARK   84  A    between atoms: _240  and  _242
REMARK   85  A    between atoms: _242  and  _243
REMARK   86  A    between atoms: _242  and  _245
REMARK   87  A    between atoms: _245  and  _246
REMARK   88  A    between atoms: _248  and  _250
REMARK   89  A    between atoms: _250  and  _251
REMARK   90  A    between atoms: _250  and  _253
REMARK   91  A    between atoms: _253  and  _254
REMARK   92  A    between atoms: _257  and  _259
REMARK   93  A    between atoms: _259  and  _260
REMARK   94  A    between atoms: _259  and  _262
REMARK   95  A    between atoms: _264  and  _266
REMARK   96  A    between atoms: _266  and  _267
REMARK   97  A    between atoms: _266  and  _269
REMARK   98  A    between atoms: _269  and  _270
REMARK   99  A    between atoms: _273  and  _275
REMARK  100  A    between atoms: _275  and  _276
REMARK  101  A    between atoms: _275  and  _278
REMARK  102  A    between atoms: _278  and  _279
REMARK  103  A    between atoms: _282  and  _284
REMARK  104  A    between atoms: _284  and  _285
REMARK  105  A    between atoms: _284  and  _287
REMARK  106  A    between atoms: _287  and  _288
REMARK                            x       y       z     vdW  Elec       q    Type
REMARK                         _______ _______ _______ _____ _____    ______ ____
ROOT
ATOM      1  O   HOH     1      85.454  90.512 -40.691  0.00  0.00    +0.000 OA
ENDROOT
TORSDOF 0
REMARK  Name = ../refined-set-2016/4agn/4agn_pocket.pdb
REMARK  106 active torsions:
REMARK  status: ('A' for Active; 'I' for Inactive)
REMARK    1  A    between atoms: _1  and  _3
REMARK    2  A    between atoms: _3  and  _4
REMARK    3  A    between atoms: _3  and  _6
REMARK    4  A    between atoms: _6  and  _7
REMARK    5  A    between atoms: _12  and  _13
REMARK    6  A    between atoms: _15  and  _17
REMARK    7  A    between atoms: _17  and  _18
REMARK    8  A    between atoms: _17  and  _20
REMARK    9  A    between atoms: _20  and  _21
REMARK   10  A    between atoms: _27  and  _29
REMARK   11  A    between atoms: _29  and  _30
REMARK   12  A    between atoms: _29  and  _32
REMARK   13  A    between atoms: _32  and  _33
REMARK   14  A    between atoms: _33  and  _34
REMARK   15  A    between atoms: _34  and  _35
REMARK   16  A    between atoms: _44  and  _46
REMARK   17  A    between atoms: _46  and  _47
REMARK   18  A    between atoms: _46  and  _49
REMARK   19  A    between atoms: _49  and  _50
REMARK   20  A    between atoms: _50  and  _51
REMARK   21  A    between atoms: _56  and  _58
REMARK   22  A    between atoms: _58  and  _59
REMARK   23  A    between atoms: _58  and  _61
REMARK   24  A    between atoms: _61  and  _62
REMARK   25  A    between atoms: _65  and  _67
REMARK   26  A    between atoms: _67  and  _68
REMARK   27  A    between atoms: _67  and  _70
REMARK   28  A    between atoms: _70  and  _71
REMARK   29  A    between atoms: _81  and  _83
REMARK   30  A    between atoms: _83  and  _84
REMARK   31  A    between atoms: _83  and  _86
REMARK   32  A    between atoms: _89  and  _91
REMARK   33  A    between atoms: _91  and  _92
REMARK   34  A    between atoms: _91  and  _94
REMARK   35  A    between atoms: _94  and  _95
REMARK   36  A    between atoms: _98  and  _100
REMARK   37  A    between atoms: _100  and  _101
REMARK   38  A    between atoms: _100  and  _103
REMARK   39  A    between atoms: _103  and  _104
REMARK   40  A    between atoms: _106  and  _108
REMARK   41  A    between atoms: _108  and  _109
REMARK   42  A    between atoms: _108  and  _111
REMARK   43  A    between atoms: _111  and  _112
REMARK   44  A    between atoms: _116  and  _117
REMARK   45  A    between atoms: _123  and  _124
REMARK   46  A    between atoms: _130  and  _131
REMARK   47  A    between atoms: _136  and  _138
REMARK   48  A    between atoms: _138  and  _139
REMARK   49  A    between atoms: _141  and  _143
REMARK   50  A    between atoms: _143  and  _144
REMARK   51  A    between atoms: _143  and  _146
REMARK   52  A    between atoms: _146  and  _147
REMARK   53  A    between atoms: _150  and  _152
REMARK   54  A    between atoms: _152  and  _153
REMARK   55  A    between atoms: _152  and  _155
REMARK   56  A    between atoms: _155  and  _156
REMARK   57  A    between atoms: _156  and  _157
REMARK   58  A    between atoms: _157  and  _158
REMARK   59  A    between atoms: _167  and  _169
REMARK   60  A    between atoms: _169  and  _170
REMARK   61  A    between atoms: _169  and  _172
REMARK   62  A    between atoms: _175  and  _177
REMARK   63  A    between atoms: _177  and  _178
REMARK   64  A    between atoms: _177  and  _180
REMARK   65  A    between atoms: _180  and  _181
REMARK   66  A    between atoms: _181  and  _182
REMARK   67  A    between atoms: _182  and  _183
REMARK   68  A    between atoms: _193  and  _194
REMARK   69  A    between atoms: _199  and  _201
REMARK   70  A    between atoms: _201  and  _202
REMARK   71  A    between atoms: _201  and  _204
REMARK   72  A    between atoms: _206  and  _208
REMARK   73  A    between atoms: _208  and  _209
REMARK   74  A    between atoms: _208  and  _211
REMARK   75  A    between atoms: _211  and  _212
REMARK   76  A    between atoms: _212  and  _213
REMARK   77  A    between atoms: _217  and  _218
REMARK   78  A    between atoms: _224  and  _225
REMARK   79  A    between atoms: _230  and  _232
REMARK   80  A    between atoms: _232  and  _233
REMARK   81  A    between atoms: _232  and  _235
REMARK   82  A    between atoms: _235  and  _236
REMARK   83  A    between atoms: _236  and  _237
REMARK   84  A    between atoms: _240  and  _242
REMARK   85  A    between atoms: _242  and  _243
REMARK   86  A    between atoms: _242  and  _245
REMARK   87  A    between atoms: _245  and  _246
REMARK   88  A    between atoms: _248  and  _250
REMARK   89  A    between atoms: _250  and  _251
REMARK   90  A    between atoms: _250  and  _253
REMARK   91  A    between atoms: _253  and  _254
REMARK   92  A    between atoms: _257  and  _259
REMARK   93  A    between atoms: _259  and  _260
REMARK   94  A    between atoms: _259  and  _262
REMARK   95  A    between atoms: _264  and  _266
REMARK   96  A    between atoms: _266  and  _267
REMARK   97  A    between atoms: _266  and  _269
REMARK   98  A    between atoms: _269  and  _270
REMARK   99  A    between atoms: _273  and  _275
REMARK  100  A    between atoms: _275  and  _276
REMARK  101  A    between atoms: _275  and  _278
REMARK  102  A    between atoms: _278  and  _279
REMARK  103  A    between atoms: _282  and  _284
REMARK  104  A    between atoms: _284  and  _285
REMARK  105  A    between atoms: _284  and  _287
REMARK  106  A    between atoms: _287  and  _288
REMARK                            x       y       z     vdW  Elec       q    Type
REMARK                         _______ _______ _______ _____ _____    ______ ____
ROOT
ATOM      1  O   HOH     1      84.331  96.785 -44.287  0.00  0.00    +0.000 OA
ENDROOT
TORSDOF 0
REMARK  Name = ../refined-set-2016/4agn/4agn_pocket.pdb
REMARK  106 active torsions:
REMARK  status: ('A' for Active; 'I' for Inactive)
REMARK    1  A    between atoms: _1  and  _3
REMARK    2  A    between atoms: _3  and  _4
REMARK    3  A    between atoms: _3  and  _6
REMARK    4  A    between atoms: _6  and  _7
REMARK    5  A    between atoms: _12  and  _13
REMARK    6  A    between atoms: _15  and  _17
REMARK    7  A    between atoms: _17  and  _18
REMARK    8  A    between atoms: _17  and  _20
REMARK    9  A    between atoms: _20  and  _21
REMARK   10  A    between atoms: _27  and  _29
REMARK   11  A    between atoms: _29  and  _30
REMARK   12  A    between atoms: _29  and  _32
REMARK   13  A    between atoms: _32  and  _33
REMARK   14  A    between atoms: _33  and  _34
REMARK   15  A    between atoms: _34  and  _35
REMARK   16  A    between atoms: _44  and  _46
REMARK   17  A    between atoms: _46  and  _47
REMARK   18  A    between atoms: _46  and  _49
REMARK   19  A    between atoms: _49  and  _50
REMARK   20  A    between atoms: _50  and  _51
REMARK   21  A    between atoms: _56  and  _58
REMARK   22  A    between atoms: _58  and  _59
REMARK   23  A    between atoms: _58  and  _61
REMARK   24  A    between atoms: _61  and  _62
REMARK   25  A    between atoms: _65  and  _67
REMARK   26  A    between atoms: _67  and  _68
REMARK   27  A    between atoms: _67  and  _70
REMARK   28  A    between atoms: _70  and  _71
REMARK   29  A    between atoms: _81  and  _83
REMARK   30  A    between atoms: _83  and  _84
REMARK   31  A    between atoms: _83  and  _86
REMARK   32  A    between atoms: _89  and  _91
REMARK   33  A    between atoms: _91  and  _92
REMARK   34  A    between atoms: _91  and  _94
REMARK   35  A    between atoms: _94  and  _95
REMARK   36  A    between atoms: _98  and  _100
REMARK   37  A    between atoms: _100  and  _101
REMARK   38  A    between atoms: _100  and  _103
REMARK   39  A    between atoms: _103  and  _104
REMARK   40  A    between atoms: _106  and  _108
REMARK   41  A    between atoms: _108  and  _109
REMARK   42  A    between atoms: _108  and  _111
REMARK   43  A    between atoms: _111  and  _112
REMARK   44  A    between atoms: _116  and  _117
REMARK   45  A    between atoms: _123  and  _124
REMARK   46  A    between atoms: _130  and  _131
REMARK   47  A    between atoms: _136  and  _138
REMARK   48  A    between atoms: _138  and  _139
REMARK   49  A    between atoms: _141  and  _143
REMARK   50  A    between atoms: _143  and  _144
REMARK   51  A    between atoms: _143  and  _146
REMARK   52  A    between atoms: _146  and  _147
REMARK   53  A    between atoms: _150  and  _152
REMARK   54  A    between atoms: _152  and  _153
REMARK   55  A    between atoms: _152  and  _155
REMARK   56  A    between atoms: _155  and  _156
REMARK   57  A    between atoms: _156  and  _157
REMARK   58  A    between atoms: _157  and  _158
REMARK   59  A    between atoms: _167  and  _169
REMARK   60  A    between atoms: _169  and  _170
REMARK   61  A    between atoms: _169  and  _172
REMARK   62  A    between atoms: _175  and  _177
REMARK   63  A    between atoms: _177  and  _178
REMARK   64  A    between atoms: _177  and  _180
REMARK   65  A    between atoms: _180  and  _181
REMARK   66  A    between atoms: _181  and  _182
REMARK   67  A    between atoms: _182  and  _183
REMARK   68  A    between atoms: _193  and  _194
REMARK   69  A    between atoms: _199  and  _201
REMARK   70  A    between atoms: _201  and  _202
REMARK   71  A    between atoms: _201  and  _204
REMARK   72  A    between atoms: _206  and  _208
REMARK   73  A    between atoms: _208  and  _209
REMARK   74  A    between atoms: _208  and  _211
REMARK   75  A    between atoms: _211  and  _212
REMARK   76  A    between atoms: _212  and  _213
REMARK   77  A    between atoms: _217  and  _218
REMARK   78  A    between atoms: _224  and  _225
REMARK   79  A    between atoms: _230  and  _232
REMARK   80  A    between atoms: _232  and  _233
REMARK   81  A    between atoms: _232  and  _235
REMARK   82  A    between atoms: _235  and  _236
REMARK   83  A    between atoms: _236  and  _237
REMARK   84  A    between atoms: _240  and  _242
REMARK   85  A    between atoms: _242  and  _243
REMARK   86  A    between atoms: _242  and  _245
REMARK   87  A    between atoms: _245  and  _246
REMARK   88  A    between atoms: _248  and  _250
REMARK   89  A    between atoms: _250  and  _251
REMARK   90  A    between atoms: _250  and  _253
REMARK   91  A    between atoms: _253  and  _254
REMARK   92  A    between atoms: _257  and  _259
REMARK   93  A    between atoms: _259  and  _260
REMARK   94  A    between atoms: _259  and  _262
REMARK   95  A    between atoms: _264  and  _266
REMARK   96  A    between atoms: _266  and  _267
REMARK   97  A    between atoms: _266  and  _269
REMARK   98  A    between atoms: _269  and  _270
REMARK   99  A    between atoms: _273  and  _275
REMARK  100  A    between atoms: _275  and  _276
REMARK  101  A    between atoms: _275  and  _278
REMARK  102  A    between atoms: _278  and  _279
REMARK  103  A    between atoms: _282  and  _284
REMARK  104  A    between atoms: _284  and  _285
REMARK  105  A    between atoms: _284  and  _287
REMARK  106  A    between atoms: _287  and  _288
REMARK                            x       y       z     vdW  Elec       q    Type
REMARK                         _______ _______ _______ _____ _____    ______ ____
ROOT
ATOM      1  O   HOH     1      84.824  93.675 -38.083  0.00  0.00    +0.000 OA
ENDROOT
TORSDOF 0
REMARK  Name = ../refined-set-2016/4agn/4agn_pocket.pdb
REMARK  106 active torsions:
REMARK  status: ('A' for Active; 'I' for Inactive)
REMARK    1  A    between atoms: _1  and  _3
REMARK    2  A    between atoms: _3  and  _4
REMARK    3  A    between atoms: _3  and  _6
REMARK    4  A    between atoms: _6  and  _7
REMARK    5  A    between atoms: _12  and  _13
REMARK    6  A    between atoms: _15  and  _17
REMARK    7  A    between atoms: _17  and  _18
REMARK    8  A    between atoms: _17  and  _20
REMARK    9  A    between atoms: _20  and  _21
REMARK   10  A    between atoms: _27  and  _29
REMARK   11  A    between atoms: _29  and  _30
REMARK   12  A    between atoms: _29  and  _32
REMARK   13  A    between atoms: _32  and  _33
REMARK   14  A    between atoms: _33  and  _34
REMARK   15  A    between atoms: _34  and  _35
REMARK   16  A    between atoms: _44  and  _46
REMARK   17  A    between atoms: _46  and  _47
REMARK   18  A    between atoms: _46  and  _49
REMARK   19  A    between atoms: _49  and  _50
REMARK   20  A    between atoms: _50  and  _51
REMARK   21  A    between atoms: _56  and  _58
REMARK   22  A    between atoms: _58  and  _59
REMARK   23  A    between atoms: _58  and  _61
REMARK   24  A    between atoms: _61  and  _62
REMARK   25  A    between atoms: _65  and  _67
REMARK   26  A    between atoms: _67  and  _68
REMARK   27  A    between atoms: _67  and  _70
REMARK   28  A    between atoms: _70  and  _71
REMARK   29  A    between atoms: _81  and  _83
REMARK   30  A    between atoms: _83  and  _84
REMARK   31  A    between atoms: _83  and  _86
REMARK   32  A    between atoms: _89  and  _91
REMARK   33  A    between atoms: _91  and  _92
REMARK   34  A    between atoms: _91  and  _94
REMARK   35  A    between atoms: _94  and  _95
REMARK   36  A    between atoms: _98  and  _100
REMARK   37  A    between atoms: _100  and  _101
REMARK   38  A    between atoms: _100  and  _103
REMARK   39  A    between atoms: _103  and  _104
REMARK   40  A    between atoms: _106  and  _108
REMARK   41  A    between atoms: _108  and  _109
REMARK   42  A    between atoms: _108  and  _111
REMARK   43  A    between atoms: _111  and  _112
REMARK   44  A    between atoms: _116  and  _117
REMARK   45  A    between atoms: _123  and  _124
REMARK   46  A    between atoms: _130  and  _131
REMARK   47  A    between atoms: _136  and  _138
REMARK   48  A    between atoms: _138  and  _139
REMARK   49  A    between atoms: _141  and  _143
REMARK   50  A    between atoms: _143  and  _144
REMARK   51  A    between atoms: _143  and  _146
REMARK   52  A    between atoms: _146  and  _147
REMARK   53  A    between atoms: _150  and  _152
REMARK   54  A    between atoms: _152  and  _153
REMARK   55  A    between atoms: _152  and  _155
REMARK   56  A    between atoms: _155  and  _156
REMARK   57  A    between atoms: _156  and  _157
REMARK   58  A    between atoms: _157  and  _158
REMARK   59  A    between atoms: _167  and  _169
REMARK   60  A    between atoms: _169  and  _170
REMARK   61  A    between atoms: _169  and  _172
REMARK   62  A    between atoms: _175  and  _177
REMARK   63  A    between atoms: _177  and  _178
REMARK   64  A    between atoms: _177  and  _180
REMARK   65  A    between atoms: _180  and  _181
REMARK   66  A    between atoms: _181  and  _182
REMARK   67  A    between atoms: _182  and  _183
REMARK   68  A    between atoms: _193  and  _194
REMARK   69  A    between atoms: _199  and  _201
REMARK   70  A    between atoms: _201  and  _202
REMARK   71  A    between atoms: _201  and  _204
REMARK   72  A    between atoms: _206  and  _208
REMARK   73  A    between atoms: _208  and  _209
REMARK   74  A    between atoms: _208  and  _211
REMARK   75  A    between atoms: _211  and  _212
REMARK   76  A    between atoms: _212  and  _213
REMARK   77  A    between atoms: _217  and  _218
REMARK   78  A    between atoms: _224  and  _225
REMARK   79  A    between atoms: _230  and  _232
REMARK   80  A    between atoms: _232  and  _233
REMARK   81  A    between atoms: _232  and  _235
REMARK   82  A    between atoms: _235  and  _236
REMARK   83  A    between atoms: _236  and  _237
REMARK   84  A    between atoms: _240  and  _242
REMARK   85  A    between atoms: _242  and  _243
REMARK   86  A    between atoms: _242  and  _245
REMARK   87  A    between atoms: _245  and  _246
REMARK   88  A    between atoms: _248  and  _250
REMARK   89  A    between atoms: _250  and  _251
REMARK   90  A    between atoms: _250  and  _253
REMARK   91  A    between atoms: _253  and  _254
REMARK   92  A    between atoms: _257  and  _259
REMARK   93  A    between atoms: _259  and  _260
REMARK   94  A    between atoms: _259  and  _262
REMARK   95  A    between atoms: _264  and  _266
REMARK   96  A    between atoms: _266  and  _267
REMARK   97  A    between atoms: _266  and  _269
REMARK   98  A    between atoms: _269  and  _270
REMARK   99  A    between atoms: _273  and  _275
REMARK  100  A    between atoms: _275  and  _276
REMARK  101  A    between atoms: _275  and  _278
REMARK  102  A    between atoms: _278  and  _279
REMARK  103  A    between atoms: _282  and  _284
REMARK  104  A    between atoms: _284  and  _285
REMARK  105  A    between atoms: _284  and  _287
REMARK  106  A    between atoms: _287  and  _288
REMARK                            x       y       z     vdW  Elec       q    Type
REMARK                         _______ _______ _______ _____ _____    ______ ____
ROOT
ATOM      1  O   HOH     1      83.911  98.948 -42.395  0.00  0.00    +0.000 OA
ENDROOT
TORSDOF 0
REMARK  Name = ../refined-set-2016/4agn/4agn_pocket.pdb
REMARK  106 active torsions:
REMARK  status: ('A' for Active; 'I' for Inactive)
REMARK    1  A    between atoms: _1  and  _3
REMARK    2  A    between atoms: _3  and  _4
REMARK    3  A    between atoms: _3  and  _6
REMARK    4  A    between atoms: _6  and  _7
REMARK    5  A    between atoms: _12  and  _13
REMARK    6  A    between atoms: _15  and  _17
REMARK    7  A    between atoms: _17  and  _18
REMARK    8  A    between atoms: _17  and  _20
REMARK    9  A    between atoms: _20  and  _21
REMARK   10  A    between atoms: _27  and  _29
REMARK   11  A    between atoms: _29  and  _30
REMARK   12  A    between atoms: _29  and  _32
REMARK   13  A    between atoms: _32  and  _33
REMARK   14  A    between atoms: _33  and  _34
REMARK   15  A    between atoms: _34  and  _35
REMARK   16  A    between atoms: _44  and  _46
REMARK   17  A    between atoms: _46  and  _47
REMARK   18  A    between atoms: _46  and  _49
REMARK   19  A    between atoms: _49  and  _50
REMARK   20  A    between atoms: _50  and  _51
REMARK   21  A    between atoms: _56  and  _58
REMARK   22  A    between atoms: _58  and  _59
REMARK   23  A    between atoms: _58  and  _61
REMARK   24  A    between atoms: _61  and  _62
REMARK   25  A    between atoms: _65  and  _67
REMARK   26  A    between atoms: _67  and  _68
REMARK   27  A    between atoms: _67  and  _70
REMARK   28  A    between atoms: _70  and  _71
REMARK   29  A    between atoms: _81  and  _83
REMARK   30  A    between atoms: _83  and  _84
REMARK   31  A    between atoms: _83  and  _86
REMARK   32  A    between atoms: _89  and  _91
REMARK   33  A    between atoms: _91  and  _92
REMARK   34  A    between atoms: _91  and  _94
REMARK   35  A    between atoms: _94  and  _95
REMARK   36  A    between atoms: _98  and  _100
REMARK   37  A    between atoms: _100  and  _101
REMARK   38  A    between atoms: _100  and  _103
REMARK   39  A    between atoms: _103  and  _104
REMARK   40  A    between atoms: _106  and  _108
REMARK   41  A    between atoms: _108  and  _109
REMARK   42  A    between atoms: _108  and  _111
REMARK   43  A    between atoms: _111  and  _112
REMARK   44  A    between atoms: _116  and  _117
REMARK   45  A    between atoms: _123  and  _124
REMARK   46  A    between atoms: _130  and  _131
REMARK   47  A    between atoms: _136  and  _138
REMARK   48  A    between atoms: _138  and  _139
REMARK   49  A    between atoms: _141  and  _143
REMARK   50  A    between atoms: _143  and  _144
REMARK   51  A    between atoms: _143  and  _146
REMARK   52  A    between atoms: _146  and  _147
REMARK   53  A    between atoms: _150  and  _152
REMARK   54  A    between atoms: _152  and  _153
REMARK   55  A    between atoms: _152  and  _155
REMARK   56  A    between atoms: _155  and  _156
REMARK   57  A    between atoms: _156  and  _157
REMARK   58  A    between atoms: _157  and  _158
REMARK   59  A    between atoms: _167  and  _169
REMARK   60  A    between atoms: _169  and  _170
REMARK   61  A    between atoms: _169  and  _172
REMARK   62  A    between atoms: _175  and  _177
REMARK   63  A    between atoms: _177  and  _178
REMARK   64  A    between atoms: _177  and  _180
REMARK   65  A    between atoms: _180  and  _181
REMARK   66  A    between atoms: _181  and  _182
REMARK   67  A    between atoms: _182  and  _183
REMARK   68  A    between atoms: _193  and  _194
REMARK   69  A    between atoms: _199  and  _201
REMARK   70  A    between atoms: _201  and  _202
REMARK   71  A    between atoms: _201  and  _204
REMARK   72  A    between atoms: _206  and  _208
REMARK   73  A    between atoms: _208  and  _209
REMARK   74  A    between atoms: _208  and  _211
REMARK   75  A    between atoms: _211  and  _212
REMARK   76  A    between atoms: _212  and  _213
REMARK   77  A    between atoms: _217  and  _218
REMARK   78  A    between atoms: _224  and  _225
REMARK   79  A    between atoms: _230  and  _232
REMARK   80  A    between atoms: _232  and  _233
REMARK   81  A    between atoms: _232  and  _235
REMARK   82  A    between atoms: _235  and  _236
REMARK   83  A    between atoms: _236  and  _237
REMARK   84  A    between atoms: _240  and  _242
REMARK   85  A    between atoms: _242  and  _243
REMARK   86  A    between atoms: _242  and  _245
REMARK   87  A    between atoms: _245  and  _246
REMARK   88  A    between atoms: _248  and  _250
REMARK   89  A    between atoms: _250  and  _251
REMARK   90  A    between atoms: _250  and  _253
REMARK   91  A    between atoms: _253  and  _254
REMARK   92  A    between atoms: _257  and  _259
REMARK   93  A    between atoms: _259  and  _260
REMARK   94  A    between atoms: _259  and  _262
REMARK   95  A    between atoms: _264  and  _266
REMARK   96  A    between atoms: _266  and  _267
REMARK   97  A    between atoms: _266  and  _269
REMARK   98  A    between atoms: _269  and  _270
REMARK   99  A    between atoms: _273  and  _275
REMARK  100  A    between atoms: _275  and  _276
REMARK  101  A    between atoms: _275  and  _278
REMARK  102  A    between atoms: _278  and  _279
REMARK  103  A    between atoms: _282  and  _284
REMARK  104  A    between atoms: _284  and  _285
REMARK  105  A    between atoms: _284  and  _287
REMARK  106  A    between atoms: _287  and  _288
REMARK                            x       y       z     vdW  Elec       q    Type
REMARK                         _______ _______ _______ _____ _____    ______ ____
ROOT
ATOM      1  O   HOH     1      87.278  99.394 -42.517  0.00  0.00    +0.000 OA
ENDROOT
TORSDOF 0
REMARK  Name = ../refined-set-2016/4agn/4agn_pocket.pdb
REMARK  106 active torsions:
REMARK  status: ('A' for Active; 'I' for Inactive)
REMARK    1  A    between atoms: _1  and  _3
REMARK    2  A    between atoms: _3  and  _4
REMARK    3  A    between atoms: _3  and  _6
REMARK    4  A    between atoms: _6  and  _7
REMARK    5  A    between atoms: _12  and  _13
REMARK    6  A    between atoms: _15  and  _17
REMARK    7  A    between atoms: _17  and  _18
REMARK    8  A    between atoms: _17  and  _20
REMARK    9  A    between atoms: _20  and  _21
REMARK   10  A    between atoms: _27  and  _29
REMARK   11  A    between atoms: _29  and  _30
REMARK   12  A    between atoms: _29  and  _32
REMARK   13  A    between atoms: _32  and  _33
REMARK   14  A    between atoms: _33  and  _34
REMARK   15  A    between atoms: _34  and  _35
REMARK   16  A    between atoms: _44  and  _46
REMARK   17  A    between atoms: _46  and  _47
REMARK   18  A    between atoms: _46  and  _49
REMARK   19  A    between atoms: _49  and  _50
REMARK   20  A    between atoms: _50  and  _51
REMARK   21  A    between atoms: _56  and  _58
REMARK   22  A    between atoms: _58  and  _59
REMARK   23  A    between atoms: _58  and  _61
REMARK   24  A    between atoms: _61  and  _62
REMARK   25  A    between atoms: _65  and  _67
REMARK   26  A    between atoms: _67  and  _68
REMARK   27  A    between atoms: _67  and  _70
REMARK   28  A    between atoms: _70  and  _71
REMARK   29  A    between atoms: _81  and  _83
REMARK   30  A    between atoms: _83  and  _84
REMARK   31  A    between atoms: _83  and  _86
REMARK   32  A    between atoms: _89  and  _91
REMARK   33  A    between atoms: _91  and  _92
REMARK   34  A    between atoms: _91  and  _94
REMARK   35  A    between atoms: _94  and  _95
REMARK   36  A    between atoms: _98  and  _100
REMARK   37  A    between atoms: _100  and  _101
REMARK   38  A    between atoms: _100  and  _103
REMARK   39  A    between atoms: _103  and  _104
REMARK   40  A    between atoms: _106  and  _108
REMARK   41  A    between atoms: _108  and  _109
REMARK   42  A    between atoms: _108  and  _111
REMARK   43  A    between atoms: _111  and  _112
REMARK   44  A    between atoms: _116  and  _117
REMARK   45  A    between atoms: _123  and  _124
REMARK   46  A    between atoms: _130  and  _131
REMARK   47  A    between atoms: _136  and  _138
REMARK   48  A    between atoms: _138  and  _139
REMARK   49  A    between atoms: _141  and  _143
REMARK   50  A    between atoms: _143  and  _144
REMARK   51  A    between atoms: _143  and  _146
REMARK   52  A    between atoms: _146  and  _147
REMARK   53  A    between atoms: _150  and  _152
REMARK   54  A    between atoms: _152  and  _153
REMARK   55  A    between atoms: _152  and  _155
REMARK   56  A    between atoms: _155  and  _156
REMARK   57  A    between atoms: _156  and  _157
REMARK   58  A    between atoms: _157  and  _158
REMARK   59  A    between atoms: _167  and  _169
REMARK   60  A    between atoms: _169  and  _170
REMARK   61  A    between atoms: _169  and  _172
REMARK   62  A    between atoms: _175  and  _177
REMARK   63  A    between atoms: _177  and  _178
REMARK   64  A    between atoms: _177  and  _180
REMARK   65  A    between atoms: _180  and  _181
REMARK   66  A    between atoms: _181  and  _182
REMARK   67  A    between atoms: _182  and  _183
REMARK   68  A    between atoms: _193  and  _194
REMARK   69  A    between atoms: _199  and  _201
REMARK   70  A    between atoms: _201  and  _202
REMARK   71  A    between atoms: _201  and  _204
REMARK   72  A    between atoms: _206  and  _208
REMARK   73  A    between atoms: _208  and  _209
REMARK   74  A    between atoms: _208  and  _211
REMARK   75  A    between atoms: _211  and  _212
REMARK   76  A    between atoms: _212  and  _213
REMARK   77  A    between atoms: _217  and  _218
REMARK   78  A    between atoms: _224  and  _225
REMARK   79  A    between atoms: _230  and  _232
REMARK   80  A    between atoms: _232  and  _233
REMARK   81  A    between atoms: _232  and  _235
REMARK   82  A    between atoms: _235  and  _236
REMARK   83  A    between atoms: _236  and  _237
REMARK   84  A    between atoms: _240  and  _242
REMARK   85  A    between atoms: _242  and  _243
REMARK   86  A    between atoms: _242  and  _245
REMARK   87  A    between atoms: _245  and  _246
REMARK   88  A    between atoms: _248  and  _250
REMARK   89  A    between atoms: _250  and  _251
REMARK   90  A    between atoms: _250  and  _253
REMARK   91  A    between atoms: _253  and  _254
REMARK   92  A    between atoms: _257  and  _259
REMARK   93  A    between atoms: _259  and  _260
REMARK   94  A    between atoms: _259  and  _262
REMARK   95  A    between atoms: _264  and  _266
REMARK   96  A    between atoms: _266  and  _267
REMARK   97  A    between atoms: _266  and  _269
REMARK   98  A    between atoms: _269  and  _270
REMARK   99  A    between atoms: _273  and  _275
REMARK  100  A    between atoms: _275  and  _276
REMARK  101  A    between atoms: _275  and  _278
REMARK  102  A    between atoms: _278  and  _279
REMARK  103  A    between atoms: _282  and  _284
REMARK  104  A    between atoms: _284  and  _285
REMARK  105  A    between atoms: _284  and  _287
REMARK  106  A    between atoms: _287  and  _288
REMARK                            x       y       z     vdW  Elec       q    Type
REMARK                         _______ _______ _______ _____ _____    ______ ____
ROOT
ATOM      1  O   HOH     1      90.754 101.132 -40.305  0.00  0.00    +0.000 OA
ENDROOT
TORSDOF 0
REMARK  Name = ../refined-set-2016/4agn/4agn_pocket.pdb
REMARK  106 active torsions:
REMARK  status: ('A' for Active; 'I' for Inactive)
REMARK    1  A    between atoms: _1  and  _3
REMARK    2  A    between atoms: _3  and  _4
REMARK    3  A    between atoms: _3  and  _6
REMARK    4  A    between atoms: _6  and  _7
REMARK    5  A    between atoms: _12  and  _13
REMARK    6  A    between atoms: _15  and  _17
REMARK    7  A    between atoms: _17  and  _18
REMARK    8  A    between atoms: _17  and  _20
REMARK    9  A    between atoms: _20  and  _21
REMARK   10  A    between atoms: _27  and  _29
REMARK   11  A    between atoms: _29  and  _30
REMARK   12  A    between atoms: _29  and  _32
REMARK   13  A    between atoms: _32  and  _33
REMARK   14  A    between atoms: _33  and  _34
REMARK   15  A    between atoms: _34  and  _35
REMARK   16  A    between atoms: _44  and  _46
REMARK   17  A    between atoms: _46  and  _47
REMARK   18  A    between atoms: _46  and  _49
REMARK   19  A    between atoms: _49  and  _50
REMARK   20  A    between atoms: _50  and  _51
REMARK   21  A    between atoms: _56  and  _58
REMARK   22  A    between atoms: _58  and  _59
REMARK   23  A    between atoms: _58  and  _61
REMARK   24  A    between atoms: _61  and  _62
REMARK   25  A    between atoms: _65  and  _67
REMARK   26  A    between atoms: _67  and  _68
REMARK   27  A    between atoms: _67  and  _70
REMARK   28  A    between atoms: _70  and  _71
REMARK   29  A    between atoms: _81  and  _83
REMARK   30  A    between atoms: _83  and  _84
REMARK   31  A    between atoms: _83  and  _86
REMARK   32  A    between atoms: _89  and  _91
REMARK   33  A    between atoms: _91  and  _92
REMARK   34  A    between atoms: _91  and  _94
REMARK   35  A    between atoms: _94  and  _95
REMARK   36  A    between atoms: _98  and  _100
REMARK   37  A    between atoms: _100  and  _101
REMARK   38  A    between atoms: _100  and  _103
REMARK   39  A    between atoms: _103  and  _104
REMARK   40  A    between atoms: _106  and  _108
REMARK   41  A    between atoms: _108  and  _109
REMARK   42  A    between atoms: _108  and  _111
REMARK   43  A    between atoms: _111  and  _112
REMARK   44  A    between atoms: _116  and  _117
REMARK   45  A    between atoms: _123  and  _124
REMARK   46  A    between atoms: _130  and  _131
REMARK   47  A    between atoms: _136  and  _138
REMARK   48  A    between atoms: _138  and  _139
REMARK   49  A    between atoms: _141  and  _143
REMARK   50  A    between atoms: _143  and  _144
REMARK   51  A    between atoms: _143  and  _146
REMARK   52  A    between atoms: _146  and  _147
REMARK   53  A    between atoms: _150  and  _152
REMARK   54  A    between atoms: _152  and  _153
REMARK   55  A    between atoms: _152  and  _155
REMARK   56  A    between atoms: _155  and  _156
REMARK   57  A    between atoms: _156  and  _157
REMARK   58  A    between atoms: _157  and  _158
REMARK   59  A    between atoms: _167  and  _169
REMARK   60  A    between atoms: _169  and  _170
REMARK   61  A    between atoms: _169  and  _172
REMARK   62  A    between atoms: _175  and  _177
REMARK   63  A    between atoms: _177  and  _178
REMARK   64  A    between atoms: _177  and  _180
REMARK   65  A    between atoms: _180  and  _181
REMARK   66  A    between atoms: _181  and  _182
REMARK   67  A    between atoms: _182  and  _183
REMARK   68  A    between atoms: _193  and  _194
REMARK   69  A    between atoms: _199  and  _201
REMARK   70  A    between atoms: _201  and  _202
REMARK   71  A    between atoms: _201  and  _204
REMARK   72  A    between atoms: _206  and  _208
REMARK   73  A    between atoms: _208  and  _209
REMARK   74  A    between atoms: _208  and  _211
REMARK   75  A    between atoms: _211  and  _212
REMARK   76  A    between atoms: _212  and  _213
REMARK   77  A    between atoms: _217  and  _218
REMARK   78  A    between atoms: _224  and  _225
REMARK   79  A    between atoms: _230  and  _232
REMARK   80  A    between atoms: _232  and  _233
REMARK   81  A    between atoms: _232  and  _235
REMARK   82  A    between atoms: _235  and  _236
REMARK   83  A    between atoms: _236  and  _237
REMARK   84  A    between atoms: _240  and  _242
REMARK   85  A    between atoms: _242  and  _243
REMARK   86  A    between atoms: _242  and  _245
REMARK   87  A    between atoms: _245  and  _246
REMARK   88  A    between atoms: _248  and  _250
REMARK   89  A    between atoms: _250  and  _251
REMARK   90  A    between atoms: _250  and  _253
REMARK   91  A    between atoms: _253  and  _254
REMARK   92  A    between atoms: _257  and  _259
REMARK   93  A    between atoms: _259  and  _260
REMARK   94  A    between atoms: _259  and  _262
REMARK   95  A    between atoms: _264  and  _266
REMARK   96  A    between atoms: _266  and  _267
REMARK   97  A    between atoms: _266  and  _269
REMARK   98  A    between atoms: _269  and  _270
REMARK   99  A    between atoms: _273  and  _275
REMARK  100  A    between atoms: _275  and  _276
REMARK  101  A    between atoms: _275  and  _278
REMARK  102  A    between atoms: _278  and  _279
REMARK  103  A    between atoms: _282  and  _284
REMARK  104  A    between atoms: _284  and  _285
REMARK  105  A    between atoms: _284  and  _287
REMARK  106  A    between atoms: _287  and  _288
REMARK                            x       y       z     vdW  Elec       q    Type
REMARK                         _______ _______ _______ _____ _____    ______ ____
ROOT
ATOM      1  O   HOH     1      84.243 102.798 -40.176  0.00  0.00    +0.000 OA
ENDROOT
TORSDOF 0
REMARK  Name = ../refined-set-2016/4agn/4agn_pocket.pdb
REMARK  106 active torsions:
REMARK  status: ('A' for Active; 'I' for Inactive)
REMARK    1  A    between atoms: _1  and  _3
REMARK    2  A    between atoms: _3  and  _4
REMARK    3  A    between atoms: _3  and  _6
REMARK    4  A    between atoms: _6  and  _7
REMARK    5  A    between atoms: _12  and  _13
REMARK    6  A    between atoms: _15  and  _17
REMARK    7  A    between atoms: _17  and  _18
REMARK    8  A    between atoms: _17  and  _20
REMARK    9  A    between atoms: _20  and  _21
REMARK   10  A    between atoms: _27  and  _29
REMARK   11  A    between atoms: _29  and  _30
REMARK   12  A    between atoms: _29  and  _32
REMARK   13  A    between atoms: _32  and  _33
REMARK   14  A    between atoms: _33  and  _34
REMARK   15  A    between atoms: _34  and  _35
REMARK   16  A    between atoms: _44  and  _46
REMARK   17  A    between atoms: _46  and  _47
REMARK   18  A    between atoms: _46  and  _49
REMARK   19  A    between atoms: _49  and  _50
REMARK   20  A    between atoms: _50  and  _51
REMARK   21  A    between atoms: _56  and  _58
REMARK   22  A    between atoms: _58  and  _59
REMARK   23  A    between atoms: _58  and  _61
REMARK   24  A    between atoms: _61  and  _62
REMARK   25  A    between atoms: _65  and  _67
REMARK   26  A    between atoms: _67  and  _68
REMARK   27  A    between atoms: _67  and  _70
REMARK   28  A    between atoms: _70  and  _71
REMARK   29  A    between atoms: _81  and  _83
REMARK   30  A    between atoms: _83  and  _84
REMARK   31  A    between atoms: _83  and  _86
REMARK   32  A    between atoms: _89  and  _91
REMARK   33  A    between atoms: _91  and  _92
REMARK   34  A    between atoms: _91  and  _94
REMARK   35  A    between atoms: _94  and  _95
REMARK   36  A    between atoms: _98  and  _100
REMARK   37  A    between atoms: _100  and  _101
REMARK   38  A    between atoms: _100  and  _103
REMARK   39  A    between atoms: _103  and  _104
REMARK   40  A    between atoms: _106  and  _108
REMARK   41  A    between atoms: _108  and  _109
REMARK   42  A    between atoms: _108  and  _111
REMARK   43  A    between atoms: _111  and  _112
REMARK   44  A    between atoms: _116  and  _117
REMARK   45  A    between atoms: _123  and  _124
REMARK   46  A    between atoms: _130  and  _131
REMARK   47  A    between atoms: _136  and  _138
REMARK   48  A    between atoms: _138  and  _139
REMARK   49  A    between atoms: _141  and  _143
REMARK   50  A    between atoms: _143  and  _144
REMARK   51  A    between atoms: _143  and  _146
REMARK   52  A    between atoms: _146  and  _147
REMARK   53  A    between atoms: _150  and  _152
REMARK   54  A    between atoms: _152  and  _153
REMARK   55  A    between atoms: _152  and  _155
REMARK   56  A    between atoms: _155  and  _156
REMARK   57  A    between atoms: _156  and  _157
REMARK   58  A    between atoms: _157  and  _158
REMARK   59  A    between atoms: _167  and  _169
REMARK   60  A    between atoms: _169  and  _170
REMARK   61  A    between atoms: _169  and  _172
REMARK   62  A    between atoms: _175  and  _177
REMARK   63  A    between atoms: _177  and  _178
REMARK   64  A    between atoms: _177  and  _180
REMARK   65  A    between atoms: _180  and  _181
REMARK   66  A    between atoms: _181  and  _182
REMARK   67  A    between atoms: _182  and  _183
REMARK   68  A    between atoms: _193  and  _194
REMARK   69  A    between atoms: _199  and  _201
REMARK   70  A    between atoms: _201  and  _202
REMARK   71  A    between atoms: _201  and  _204
REMARK   72  A    between atoms: _206  and  _208
REMARK   73  A    between atoms: _208  and  _209
REMARK   74  A    between atoms: _208  and  _211
REMARK   75  A    between atoms: _211  and  _212
REMARK   76  A    between atoms: _212  and  _213
REMARK   77  A    between atoms: _217  and  _218
REMARK   78  A    between atoms: _224  and  _225
REMARK   79  A    between atoms: _230  and  _232
REMARK   80  A    between atoms: _232  and  _233
REMARK   81  A    between atoms: _232  and  _235
REMARK   82  A    between atoms: _235  and  _236
REMARK   83  A    between atoms: _236  and  _237
REMARK   84  A    between atoms: _240  and  _242
REMARK   85  A    between atoms: _242  and  _243
REMARK   86  A    between atoms: _242  and  _245
REMARK   87  A    between atoms: _245  and  _246
REMARK   88  A    between atoms: _248  and  _250
REMARK   89  A    between atoms: _250  and  _251
REMARK   90  A    between atoms: _250  and  _253
REMARK   91  A    between atoms: _253  and  _254
REMARK   92  A    between atoms: _257  and  _259
REMARK   93  A    between atoms: _259  and  _260
REMARK   94  A    between atoms: _259  and  _262
REMARK   95  A    between atoms: _264  and  _266
REMARK   96  A    between atoms: _266  and  _267
REMARK   97  A    between atoms: _266  and  _269
REMARK   98  A    between atoms: _269  and  _270
REMARK   99  A    between atoms: _273  and  _275
REMARK  100  A    between atoms: _275  and  _276
REMARK  101  A    between atoms: _275  and  _278
REMARK  102  A    between atoms: _278  and  _279
REMARK  103  A    between atoms: _282  and  _284
REMARK  104  A    between atoms: _284  and  _285
REMARK  105  A    between atoms: _284  and  _287
REMARK  106  A    between atoms: _287  and  _288
REMARK                            x       y       z     vdW  Elec       q    Type
REMARK                         _______ _______ _______ _____ _____    ______ ____
ROOT
ATOM      1  O   HOH     1      88.355 102.163 -41.292  0.00  0.00    +0.000 OA
ENDROOT
TORSDOF 0
REMARK  Name = ../refined-set-2016/4agn/4agn_pocket.pdb
REMARK  106 active torsions:
REMARK  status: ('A' for Active; 'I' for Inactive)
REMARK    1  A    between atoms: _1  and  _3
REMARK    2  A    between atoms: _3  and  _4
REMARK    3  A    between atoms: _3  and  _6
REMARK    4  A    between atoms: _6  and  _7
REMARK    5  A    between atoms: _12  and  _13
REMARK    6  A    between atoms: _15  and  _17
REMARK    7  A    between atoms: _17  and  _18
REMARK    8  A    between atoms: _17  and  _20
REMARK    9  A    between atoms: _20  and  _21
REMARK   10  A    between atoms: _27  and  _29
REMARK   11  A    between atoms: _29  and  _30
REMARK   12  A    between atoms: _29  and  _32
REMARK   13  A    between atoms: _32  and  _33
REMARK   14  A    between atoms: _33  and  _34
REMARK   15  A    between atoms: _34  and  _35
REMARK   16  A    between atoms: _44  and  _46
REMARK   17  A    between atoms: _46  and  _47
REMARK   18  A    between atoms: _46  and  _49
REMARK   19  A    between atoms: _49  and  _50
REMARK   20  A    between atoms: _50  and  _51
REMARK   21  A    between atoms: _56  and  _58
REMARK   22  A    between atoms: _58  and  _59
REMARK   23  A    between atoms: _58  and  _61
REMARK   24  A    between atoms: _61  and  _62
REMARK   25  A    between atoms: _65  and  _67
REMARK   26  A    between atoms: _67  and  _68
REMARK   27  A    between atoms: _67  and  _70
REMARK   28  A    between atoms: _70  and  _71
REMARK   29  A    between atoms: _81  and  _83
REMARK   30  A    between atoms: _83  and  _84
REMARK   31  A    between atoms: _83  and  _86
REMARK   32  A    between atoms: _89  and  _91
REMARK   33  A    between atoms: _91  and  _92
REMARK   34  A    between atoms: _91  and  _94
REMARK   35  A    between atoms: _94  and  _95
REMARK   36  A    between atoms: _98  and  _100
REMARK   37  A    between atoms: _100  and  _101
REMARK   38  A    between atoms: _100  and  _103
REMARK   39  A    between atoms: _103  and  _104
REMARK   40  A    between atoms: _106  and  _108
REMARK   41  A    between atoms: _108  and  _109
REMARK   42  A    between atoms: _108  and  _111
REMARK   43  A    between atoms: _111  and  _112
REMARK   44  A    between atoms: _116  and  _117
REMARK   45  A    between atoms: _123  and  _124
REMARK   46  A    between atoms: _130  and  _131
REMARK   47  A    between atoms: _136  and  _138
REMARK   48  A    between atoms: _138  and  _139
REMARK   49  A    between atoms: _141  and  _143
REMARK   50  A    between atoms: _143  and  _144
REMARK   51  A    between atoms: _143  and  _146
REMARK   52  A    between atoms: _146  and  _147
REMARK   53  A    between atoms: _150  and  _152
REMARK   54  A    between atoms: _152  and  _153
REMARK   55  A    between atoms: _152  and  _155
REMARK   56  A    between atoms: _155  and  _156
REMARK   57  A    between atoms: _156  and  _157
REMARK   58  A    between atoms: _157  and  _158
REMARK   59  A    between atoms: _167  and  _169
REMARK   60  A    between atoms: _169  and  _170
REMARK   61  A    between atoms: _169  and  _172
REMARK   62  A    between atoms: _175  and  _177
REMARK   63  A    between atoms: _177  and  _178
REMARK   64  A    between atoms: _177  and  _180
REMARK   65  A    between atoms: _180  and  _181
REMARK   66  A    between atoms: _181  and  _182
REMARK   67  A    between atoms: _182  and  _183
REMARK   68  A    between atoms: _193  and  _194
REMARK   69  A    between atoms: _199  and  _201
REMARK   70  A    between atoms: _201  and  _202
REMARK   71  A    between atoms: _201  and  _204
REMARK   72  A    between atoms: _206  and  _208
REMARK   73  A    between atoms: _208  and  _209
REMARK   74  A    between atoms: _208  and  _211
REMARK   75  A    between atoms: _211  and  _212
REMARK   76  A    between atoms: _212  and  _213
REMARK   77  A    between atoms: _217  and  _218
REMARK   78  A    between atoms: _224  and  _225
REMARK   79  A    between atoms: _230  and  _232
REMARK   80  A    between atoms: _232  and  _233
REMARK   81  A    between atoms: _232  and  _235
REMARK   82  A    between atoms: _235  and  _236
REMARK   83  A    between atoms: _236  and  _237
REMARK   84  A    between atoms: _240  and  _242
REMARK   85  A    between atoms: _242  and  _243
REMARK   86  A    between atoms: _242  and  _245
REMARK   87  A    between atoms: _245  and  _246
REMARK   88  A    between atoms: _248  and  _250
REMARK   89  A    between atoms: _250  and  _251
REMARK   90  A    between atoms: _250  and  _253
REMARK   91  A    between atoms: _253  and  _254
REMARK   92  A    between atoms: _257  and  _259
REMARK   93  A    between atoms: _259  and  _260
REMARK   94  A    between atoms: _259  and  _262
REMARK   95  A    between atoms: _264  and  _266
REMARK   96  A    between atoms: _266  and  _267
REMARK   97  A    between atoms: _266  and  _269
REMARK   98  A    between atoms: _269  and  _270
REMARK   99  A    between atoms: _273  and  _275
REMARK  100  A    between atoms: _275  and  _276
REMARK  101  A    between atoms: _275  and  _278
REMARK  102  A    between atoms: _278  and  _279
REMARK  103  A    between atoms: _282  and  _284
REMARK  104  A    between atoms: _284  and  _285
REMARK  105  A    between atoms: _284  and  _287
REMARK  106  A    between atoms: _287  and  _288
REMARK                            x       y       z     vdW  Elec       q    Type
REMARK                         _______ _______ _______ _____ _____    ______ ____
ROOT
ATOM      1  O   HOH     1      85.802  90.986 -37.803  0.00  0.00    +0.000 OA
ENDROOT
TORSDOF 0
REMARK  Name = ../refined-set-2016/4agn/4agn_pocket.pdb
REMARK  106 active torsions:
REMARK  status: ('A' for Active; 'I' for Inactive)
REMARK    1  A    between atoms: _1  and  _3
REMARK    2  A    between atoms: _3  and  _4
REMARK    3  A    between atoms: _3  and  _6
REMARK    4  A    between atoms: _6  and  _7
REMARK    5  A    between atoms: _12  and  _13
REMARK    6  A    between atoms: _15  and  _17
REMARK    7  A    between atoms: _17  and  _18
REMARK    8  A    between atoms: _17  and  _20
REMARK    9  A    between atoms: _20  and  _21
REMARK   10  A    between atoms: _27  and  _29
REMARK   11  A    between atoms: _29  and  _30
REMARK   12  A    between atoms: _29  and  _32
REMARK   13  A    between atoms: _32  and  _33
REMARK   14  A    between atoms: _33  and  _34
REMARK   15  A    between atoms: _34  and  _35
REMARK   16  A    between atoms: _44  and  _46
REMARK   17  A    between atoms: _46  and  _47
REMARK   18  A    between atoms: _46  and  _49
REMARK   19  A    between atoms: _49  and  _50
REMARK   20  A    between atoms: _50  and  _51
REMARK   21  A    between atoms: _56  and  _58
REMARK   22  A    between atoms: _58  and  _59
REMARK   23  A    between atoms: _58  and  _61
REMARK   24  A    between atoms: _61  and  _62
REMARK   25  A    between atoms: _65  and  _67
REMARK   26  A    between atoms: _67  and  _68
REMARK   27  A    between atoms: _67  and  _70
REMARK   28  A    between atoms: _70  and  _71
REMARK   29  A    between atoms: _81  and  _83
REMARK   30  A    between atoms: _83  and  _84
REMARK   31  A    between atoms: _83  and  _86
REMARK   32  A    between atoms: _89  and  _91
REMARK   33  A    between atoms: _91  and  _92
REMARK   34  A    between atoms: _91  and  _94
REMARK   35  A    between atoms: _94  and  _95
REMARK   36  A    between atoms: _98  and  _100
REMARK   37  A    between atoms: _100  and  _101
REMARK   38  A    between atoms: _100  and  _103
REMARK   39  A    between atoms: _103  and  _104
REMARK   40  A    between atoms: _106  and  _108
REMARK   41  A    between atoms: _108  and  _109
REMARK   42  A    between atoms: _108  and  _111
REMARK   43  A    between atoms: _111  and  _112
REMARK   44  A    between atoms: _116  and  _117
REMARK   45  A    between atoms: _123  and  _124
REMARK   46  A    between atoms: _130  and  _131
REMARK   47  A    between atoms: _136  and  _138
REMARK   48  A    between atoms: _138  and  _139
REMARK   49  A    between atoms: _141  and  _143
REMARK   50  A    between atoms: _143  and  _144
REMARK   51  A    between atoms: _143  and  _146
REMARK   52  A    between atoms: _146  and  _147
REMARK   53  A    between atoms: _150  and  _152
REMARK   54  A    between atoms: _152  and  _153
REMARK   55  A    between atoms: _152  and  _155
REMARK   56  A    between atoms: _155  and  _156
REMARK   57  A    between atoms: _156  and  _157
REMARK   58  A    between atoms: _157  and  _158
REMARK   59  A    between atoms: _167  and  _169
REMARK   60  A    between atoms: _169  and  _170
REMARK   61  A    between atoms: _169  and  _172
REMARK   62  A    between atoms: _175  and  _177
REMARK   63  A    between atoms: _177  and  _178
REMARK   64  A    between atoms: _177  and  _180
REMARK   65  A    between atoms: _180  and  _181
REMARK   66  A    between atoms: _181  and  _182
REMARK   67  A    between atoms: _182  and  _183
REMARK   68  A    between atoms: _193  and  _194
REMARK   69  A    between atoms: _199  and  _201
REMARK   70  A    between atoms: _201  and  _202
REMARK   71  A    between atoms: _201  and  _204
REMARK   72  A    between atoms: _206  and  _208
REMARK   73  A    between atoms: _208  and  _209
REMARK   74  A    between atoms: _208  and  _211
REMARK   75  A    between atoms: _211  and  _212
REMARK   76  A    between atoms: _212  and  _213
REMARK   77  A    between atoms: _217  and  _218
REMARK   78  A    between atoms: _224  and  _225
REMARK   79  A    between atoms: _230  and  _232
REMARK   80  A    between atoms: _232  and  _233
REMARK   81  A    between atoms: _232  and  _235
REMARK   82  A    between atoms: _235  and  _236
REMARK   83  A    between atoms: _236  and  _237
REMARK   84  A    between atoms: _240  and  _242
REMARK   85  A    between atoms: _242  and  _243
REMARK   86  A    between atoms: _242  and  _245
REMARK   87  A    between atoms: _245  and  _246
REMARK   88  A    between atoms: _248  and  _250
REMARK   89  A    between atoms: _250  and  _251
REMARK   90  A    between atoms: _250  and  _253
REMARK   91  A    between atoms: _253  and  _254
REMARK   92  A    between atoms: _257  and  _259
REMARK   93  A    between atoms: _259  and  _260
REMARK   94  A    between atoms: _259  and  _262
REMARK   95  A    between atoms: _264  and  _266
REMARK   96  A    between atoms: _266  and  _267
REMARK   97  A    between atoms: _266  and  _269
REMARK   98  A    between atoms: _269  and  _270
REMARK   99  A    between atoms: _273  and  _275
REMARK  100  A    between atoms: _275  and  _276
REMARK  101  A    between atoms: _275  and  _278
REMARK  102  A    between atoms: _278  and  _279
REMARK  103  A    between atoms: _282  and  _284
REMARK  104  A    between atoms: _284  and  _285
REMARK  105  A    between atoms: _284  and  _287
REMARK  106  A    between atoms: _287  and  _288
REMARK                            x       y       z     vdW  Elec       q    Type
REMARK                         _______ _______ _______ _____ _____    ______ ____
ROOT
ATOM      1  O   HOH     1      89.683  92.416 -50.320  0.00  0.00    +0.000 OA
ENDROOT
TORSDOF 0
