REMARK  Name = ../refined-set-2016/3s56/3s56_pocket.pdb
REMARK  225 active torsions:
REMARK  status: ('A' for Active; 'I' for Inactive)
REMARK    1  A    between atoms: _1  and  _3
REMARK    2  A    between atoms: _3  and  _4
REMARK    3  A    between atoms: _3  and  _6
REMARK    4  A    between atoms: _6  and  _7
REMARK    5  A    between atoms: _7  and  _8
REMARK    6  A    between atoms: _8  and  _9
REMARK    7  A    between atoms: _18  and  _20
REMARK    8  A    between atoms: _20  and  _21
REMARK    9  A    between atoms: _20  and  _23
REMARK   10  A    between atoms: _23  and  _24
REMARK   11  A    between atoms: _27  and  _29
REMARK   12  A    between atoms: _29  and  _30
REMARK   13  A    between atoms: _29  and  _32
REMARK   14  A    between atoms: _32  and  _33
REMARK   15  A    between atoms: _36  and  _38
REMARK   16  A    between atoms: _38  and  _39
REMARK   17  A    between atoms: _38  and  _41
REMARK   18  A    between atoms: _41  and  _42
REMARK   19  A    between atoms: _45  and  _47
REMARK   20  A    between atoms: _47  and  _48
REMARK   21  A    between atoms: _47  and  _50
REMARK   22  A    between atoms: _50  and  _51
REMARK   23  A    between atoms: _54  and  _56
REMARK   24  A    between atoms: _56  and  _57
REMARK   25  A    between atoms: _59  and  _61
REMARK   26  A    between atoms: _61  and  _62
REMARK   27  A    between atoms: _65  and  _67
REMARK   28  A    between atoms: _67  and  _68
REMARK   29  A    between atoms: _67  and  _70
REMARK   30  A    between atoms: _70  and  _71
REMARK   31  A    between atoms: _74  and  _76
REMARK   32  A    between atoms: _76  and  _77
REMARK   33  A    between atoms: _76  and  _79
REMARK   34  A    between atoms: _79  and  _80
REMARK   35  A    between atoms: _83  and  _85
REMARK   36  A    between atoms: _85  and  _86
REMARK   37  A    between atoms: _85  and  _88
REMARK   38  A    between atoms: _88  and  _89
REMARK   39  A    between atoms: _92  and  _94
REMARK   40  A    between atoms: _94  and  _95
REMARK   41  A    between atoms: _94  and  _97
REMARK   42  A    between atoms: _97  and  _98
REMARK   43  A    between atoms: _101  and  _103
REMARK   44  A    between atoms: _103  and  _104
REMARK   45  A    between atoms: _103  and  _106
REMARK   46  A    between atoms: _106  and  _107
REMARK   47  A    between atoms: _107  and  _108
REMARK   48  A    between atoms: _108  and  _109
REMARK   49  A    between atoms: _109  and  _110
REMARK   50  A    between atoms: _114  and  _116
REMARK   51  A    between atoms: _116  and  _117
REMARK   52  A    between atoms: _116  and  _119
REMARK   53  A    between atoms: _119  and  _120
REMARK   54  A    between atoms: _120  and  _121
REMARK   55  A    between atoms: _123  and  _125
REMARK   56  A    between atoms: _125  and  _126
REMARK   57  A    between atoms: _125  and  _128
REMARK   58  A    between atoms: _131  and  _133
REMARK   59  A    between atoms: _133  and  _134
REMARK   60  A    between atoms: _136  and  _138
REMARK   61  A    between atoms: _138  and  _139
REMARK   62  A    between atoms: _141  and  _143
REMARK   63  A    between atoms: _143  and  _144
REMARK   64  A    between atoms: _143  and  _146
REMARK   65  A    between atoms: _146  and  _147
REMARK   66  A    between atoms: _150  and  _152
REMARK   67  A    between atoms: _152  and  _153
REMARK   68  A    between atoms: _155  and  _157
REMARK   69  A    between atoms: _157  and  _158
REMARK   70  A    between atoms: _160  and  _162
REMARK   71  A    between atoms: _162  and  _163
REMARK   72  A    between atoms: _162  and  _165
REMARK   73  A    between atoms: _165  and  _166
REMARK   74  A    between atoms: _172  and  _174
REMARK   75  A    between atoms: _174  and  _175
REMARK   76  A    between atoms: _174  and  _177
REMARK   77  A    between atoms: _177  and  _178
REMARK   78  A    between atoms: _181  and  _183
REMARK   79  A    between atoms: _183  and  _184
REMARK   80  A    between atoms: _183  and  _186
REMARK   81  A    between atoms: _189  and  _191
REMARK   82  A    between atoms: _191  and  _192
REMARK   83  A    between atoms: _191  and  _194
REMARK   84  A    between atoms: _194  and  _195
REMARK   85  A    between atoms: _199  and  _200
REMARK   86  A    between atoms: _205  and  _207
REMARK   87  A    between atoms: _207  and  _208
REMARK   88  A    between atoms: _207  and  _210
REMARK   89  A    between atoms: _210  and  _211
REMARK   90  A    between atoms: _215  and  _216
REMARK   91  A    between atoms: _221  and  _223
REMARK   92  A    between atoms: _223  and  _224
REMARK   93  A    between atoms: _223  and  _226
REMARK   94  A    between atoms: _226  and  _227
REMARK   95  A    between atoms: _230  and  _232
REMARK   96  A    between atoms: _232  and  _233
REMARK   97  A    between atoms: _232  and  _235
REMARK   98  A    between atoms: _235  and  _236
REMARK   99  A    between atoms: _241  and  _243
REMARK  100  A    between atoms: _243  and  _244
REMARK  101  A    between atoms: _243  and  _246
REMARK  102  A    between atoms: _246  and  _247
REMARK  103  A    between atoms: _250  and  _252
REMARK  104  A    between atoms: _252  and  _253
REMARK  105  A    between atoms: _252  and  _255
REMARK  106  A    between atoms: _255  and  _256
REMARK  107  A    between atoms: _259  and  _261
REMARK  108  A    between atoms: _261  and  _262
REMARK  109  A    between atoms: _264  and  _266
REMARK  110  A    between atoms: _266  and  _267
REMARK  111  A    between atoms: _266  and  _269
REMARK  112  A    between atoms: _269  and  _270
REMARK  113  A    between atoms: _270  and  _271
REMARK  114  A    between atoms: _271  and  _272
REMARK  115  A    between atoms: _281  and  _283
REMARK  116  A    between atoms: _283  and  _284
REMARK  117  A    between atoms: _283  and  _286
REMARK  118  A    between atoms: _286  and  _287
REMARK  119  A    between atoms: _292  and  _294
REMARK  120  A    between atoms: _294  and  _295
REMARK  121  A    between atoms: _294  and  _297
REMARK  122  A    between atoms: _297  and  _298
REMARK  123  A    between atoms: _298  and  _299
REMARK  124  A    between atoms: _299  and  _300
REMARK  125  A    between atoms: _309  and  _311
REMARK  126  A    between atoms: _311  and  _312
REMARK  127  A    between atoms: _311  and  _314
REMARK  128  A    between atoms: _314  and  _315
REMARK  129  A    between atoms: _318  and  _320
REMARK  130  A    between atoms: _320  and  _321
REMARK  131  A    between atoms: _320  and  _323
REMARK  132  A    between atoms: _323  and  _324
REMARK  133  A    between atoms: _327  and  _329
REMARK  134  A    between atoms: _329  and  _330
REMARK  135  A    between atoms: _329  and  _332
REMARK  136  A    between atoms: _332  and  _333
REMARK  137  A    between atoms: _336  and  _338
REMARK  138  A    between atoms: _338  and  _339
REMARK  139  A    between atoms: _338  and  _341
REMARK  140  A    between atoms: _341  and  _342
REMARK  141  A    between atoms: _345  and  _347
REMARK  142  A    between atoms: _347  and  _348
REMARK  143  A    between atoms: _350  and  _352
REMARK  144  A    between atoms: _352  and  _353
REMARK  145  A    between atoms: _356  and  _358
REMARK  146  A    between atoms: _358  and  _359
REMARK  147  A    between atoms: _358  and  _361
REMARK  148  A    between atoms: _361  and  _362
REMARK  149  A    between atoms: _365  and  _367
REMARK  150  A    between atoms: _367  and  _368
REMARK  151  A    between atoms: _367  and  _370
REMARK  152  A    between atoms: _370  and  _371
REMARK  153  A    between atoms: _374  and  _376
REMARK  154  A    between atoms: _376  and  _377
REMARK  155  A    between atoms: _376  and  _379
REMARK  156  A    between atoms: _379  and  _380
REMARK  157  A    between atoms: _383  and  _385
REMARK  158  A    between atoms: _385  and  _386
REMARK  159  A    between atoms: _385  and  _388
REMARK  160  A    between atoms: _388  and  _389
REMARK  161  A    between atoms: _392  and  _394
REMARK  162  A    between atoms: _394  and  _395
REMARK  163  A    between atoms: _394  and  _397
REMARK  164  A    between atoms: _397  and  _398
REMARK  165  A    between atoms: _398  and  _399
REMARK  166  A    between atoms: _401  and  _403
REMARK  167  A    between atoms: _403  and  _404
REMARK  168  A    between atoms: _403  and  _406
REMARK  169  A    between atoms: _409  and  _411
REMARK  170  A    between atoms: _411  and  _412
REMARK  171  A    between atoms: _414  and  _416
REMARK  172  A    between atoms: _416  and  _417
REMARK  173  A    between atoms: _419  and  _421
REMARK  174  A    between atoms: _421  and  _422
REMARK  175  A    between atoms: _421  and  _424
REMARK  176  A    between atoms: _424  and  _425
REMARK  177  A    between atoms: _428  and  _430
REMARK  178  A    between atoms: _430  and  _431
REMARK  179  A    between atoms: _433  and  _435
REMARK  180  A    between atoms: _435  and  _436
REMARK  181  A    between atoms: _438  and  _440
REMARK  182  A    between atoms: _440  and  _441
REMARK  183  A    between atoms: _440  and  _443
REMARK  184  A    between atoms: _443  and  _444
REMARK  185  A    between atoms: _447  and  _449
REMARK  186  A    between atoms: _449  and  _450
REMARK  187  A    between atoms: _449  and  _452
REMARK  188  A    between atoms: _455  and  _457
REMARK  189  A    between atoms: _457  and  _458
REMARK  190  A    between atoms: _457  and  _460
REMARK  191  A    between atoms: _460  and  _461
REMARK  192  A    between atoms: _465  and  _466
REMARK  193  A    between atoms: _471  and  _473
REMARK  194  A    between atoms: _473  and  _474
REMARK  195  A    between atoms: _473  and  _476
REMARK  196  A    between atoms: _476  and  _477
REMARK  197  A    between atoms: _481  and  _482
REMARK  198  A    between atoms: _487  and  _489
REMARK  199  A    between atoms: _489  and  _490
REMARK  200  A    between atoms: _489  and  _492
REMARK  201  A    between atoms: _492  and  _493
REMARK  202  A    between atoms: _496  and  _498
REMARK  203  A    between atoms: _498  and  _499
REMARK  204  A    between atoms: _498  and  _501
REMARK  205  A    between atoms: _501  and  _502
REMARK  206  A    between atoms: _507  and  _509
REMARK  207  A    between atoms: _509  and  _510
REMARK  208  A    between atoms: _509  and  _512
REMARK  209  A    between atoms: _512  and  _513
REMARK  210  A    between atoms: _516  and  _518
REMARK  211  A    between atoms: _518  and  _519
REMARK  212  A    between atoms: _518  and  _521
REMARK  213  A    between atoms: _521  and  _522
REMARK  214  A    between atoms: _525  and  _527
REMARK  215  A    between atoms: _527  and  _528
REMARK  216  A    between atoms: _530  and  _532
REMARK  217  A    between atoms: _532  and  _533
REMARK  218  A    between atoms: _532  and  _535
REMARK  219  A    between atoms: _535  and  _536
REMARK  220  A    between atoms: _536  and  _537
REMARK  221  A    between atoms: _537  and  _538
REMARK  222  A    between atoms: _547  and  _549
REMARK  223  A    between atoms: _549  and  _550
REMARK  224  A    between atoms: _549  and  _552
REMARK  225  A    between atoms: _552  and  _553
REMARK                            x       y       z     vdW  Elec       q    Type
REMARK                         _______ _______ _______ _____ _____    ______ ____
ROOT
ATOM      1  NE  ARG A   1      -8.520   4.244  34.024  0.00  0.00    -0.265 N 
ATOM      2  CZ  ARG A   1      -9.063   5.426  34.274  0.00  0.00    +0.342 C 
ATOM      3  NH2 ARG A   1      -9.936   5.605  35.326  0.00  0.00    -0.292 N 
ATOM      4 HH21 ARG A   1     -10.180   4.803  35.942  0.00  0.00    +0.255 HD
ATOM      5 HH22 ARG A   1     -10.351   6.542  35.504  0.00  0.00    +0.255 HD
ATOM      6  NH1 ARG A   1      -8.685   6.434  33.505  0.00  0.00    -0.292 N 
ATOM      7 HH11 ARG A   1      -9.081   7.383  33.659  0.00  0.00    +0.255 HD
ATOM      8 HH12 ARG A   1      -7.991   6.277  32.746  0.00  0.00    +0.255 HD
ATOM      9  HE  ARG A   1      -7.861   4.163  33.223  0.00  0.00    +0.259 HD
ENDROOT
BRANCH   1  10
ATOM     10  CD  ARG A   1      -8.795   3.064  34.804  0.00  0.00    +0.174 C 
BRANCH  10  11
ATOM     11  CG  ARG A   1      -8.289   1.873  33.959  0.00  0.00    +0.045 C 
BRANCH  11  12
ATOM     12  CB  ARG A   1      -8.570   0.626  34.828  0.00  0.00    +0.029 C 
BRANCH  12  13
ATOM     13  CA  ARG A   1      -8.130  -0.672  34.166  0.00  0.00    +0.133 C 
BRANCH  13  14
ATOM     14  N   ARG A   1      -8.917  -1.006  32.957  0.00  0.00    -0.239 NA
ATOM     15  H   ARG A   1      -9.714  -0.406  32.664  0.00  0.00    +0.142 HD
ENDBRANCH  13  14
BRANCH  13  16
ATOM     16  C   ARG A   1      -8.311  -1.802  35.173  0.00  0.00    +0.224 C 
ATOM     17  O   ARG A   1      -9.442  -2.272  35.317  0.00  0.00    -0.287 OA
ENDBRANCH  13  16
ENDBRANCH  12  13
ENDBRANCH  11  12
ENDBRANCH  10  11
ENDBRANCH   1  10
TORSDOF 6
REMARK  Name = ../refined-set-2016/3s56/3s56_pocket.pdb
REMARK  225 active torsions:
REMARK  status: ('A' for Active; 'I' for Inactive)
REMARK    1  A    between atoms: _1  and  _3
REMARK    2  A    between atoms: _3  and  _4
REMARK    3  A    between atoms: _3  and  _6
REMARK    4  A    between atoms: _6  and  _7
REMARK    5  A    between atoms: _7  and  _8
REMARK    6  A    between atoms: _8  and  _9
REMARK    7  A    between atoms: _18  and  _20
REMARK    8  A    between atoms: _20  and  _21
REMARK    9  A    between atoms: _20  and  _23
REMARK   10  A    between atoms: _23  and  _24
REMARK   11  A    between atoms: _27  and  _29
REMARK   12  A    between atoms: _29  and  _30
REMARK   13  A    between atoms: _29  and  _32
REMARK   14  A    between atoms: _32  and  _33
REMARK   15  A    between atoms: _36  and  _38
REMARK   16  A    between atoms: _38  and  _39
REMARK   17  A    between atoms: _38  and  _41
REMARK   18  A    between atoms: _41  and  _42
REMARK   19  A    between atoms: _45  and  _47
REMARK   20  A    between atoms: _47  and  _48
REMARK   21  A    between atoms: _47  and  _50
REMARK   22  A    between atoms: _50  and  _51
REMARK   23  A    between atoms: _54  and  _56
REMARK   24  A    between atoms: _56  and  _57
REMARK   25  A    between atoms: _59  and  _61
REMARK   26  A    between atoms: _61  and  _62
REMARK   27  A    between atoms: _65  and  _67
REMARK   28  A    between atoms: _67  and  _68
REMARK   29  A    between atoms: _67  and  _70
REMARK   30  A    between atoms: _70  and  _71
REMARK   31  A    between atoms: _74  and  _76
REMARK   32  A    between atoms: _76  and  _77
REMARK   33  A    between atoms: _76  and  _79
REMARK   34  A    between atoms: _79  and  _80
REMARK   35  A    between atoms: _83  and  _85
REMARK   36  A    between atoms: _85  and  _86
REMARK   37  A    between atoms: _85  and  _88
REMARK   38  A    between atoms: _88  and  _89
REMARK   39  A    between atoms: _92  and  _94
REMARK   40  A    between atoms: _94  and  _95
REMARK   41  A    between atoms: _94  and  _97
REMARK   42  A    between atoms: _97  and  _98
REMARK   43  A    between atoms: _101  and  _103
REMARK   44  A    between atoms: _103  and  _104
REMARK   45  A    between atoms: _103  and  _106
REMARK   46  A    between atoms: _106  and  _107
REMARK   47  A    between atoms: _107  and  _108
REMARK   48  A    between atoms: _108  and  _109
REMARK   49  A    between atoms: _109  and  _110
REMARK   50  A    between atoms: _114  and  _116
REMARK   51  A    between atoms: _116  and  _117
REMARK   52  A    between atoms: _116  and  _119
REMARK   53  A    between atoms: _119  and  _120
REMARK   54  A    between atoms: _120  and  _121
REMARK   55  A    between atoms: _123  and  _125
REMARK   56  A    between atoms: _125  and  _126
REMARK   57  A    between atoms: _125  and  _128
REMARK   58  A    between atoms: _131  and  _133
REMARK   59  A    between atoms: _133  and  _134
REMARK   60  A    between atoms: _136  and  _138
REMARK   61  A    between atoms: _138  and  _139
REMARK   62  A    between atoms: _141  and  _143
REMARK   63  A    between atoms: _143  and  _144
REMARK   64  A    between atoms: _143  and  _146
REMARK   65  A    between atoms: _146  and  _147
REMARK   66  A    between atoms: _150  and  _152
REMARK   67  A    between atoms: _152  and  _153
REMARK   68  A    between atoms: _155  and  _157
REMARK   69  A    between atoms: _157  and  _158
REMARK   70  A    between atoms: _160  and  _162
REMARK   71  A    between atoms: _162  and  _163
REMARK   72  A    between atoms: _162  and  _165
REMARK   73  A    between atoms: _165  and  _166
REMARK   74  A    between atoms: _172  and  _174
REMARK   75  A    between atoms: _174  and  _175
REMARK   76  A    between atoms: _174  and  _177
REMARK   77  A    between atoms: _177  and  _178
REMARK   78  A    between atoms: _181  and  _183
REMARK   79  A    between atoms: _183  and  _184
REMARK   80  A    between atoms: _183  and  _186
REMARK   81  A    between atoms: _189  and  _191
REMARK   82  A    between atoms: _191  and  _192
REMARK   83  A    between atoms: _191  and  _194
REMARK   84  A    between atoms: _194  and  _195
REMARK   85  A    between atoms: _199  and  _200
REMARK   86  A    between atoms: _205  and  _207
REMARK   87  A    between atoms: _207  and  _208
REMARK   88  A    between atoms: _207  and  _210
REMARK   89  A    between atoms: _210  and  _211
REMARK   90  A    between atoms: _215  and  _216
REMARK   91  A    between atoms: _221  and  _223
REMARK   92  A    between atoms: _223  and  _224
REMARK   93  A    between atoms: _223  and  _226
REMARK   94  A    between atoms: _226  and  _227
REMARK   95  A    between atoms: _230  and  _232
REMARK   96  A    between atoms: _232  and  _233
REMARK   97  A    between atoms: _232  and  _235
REMARK   98  A    between atoms: _235  and  _236
REMARK   99  A    between atoms: _241  and  _243
REMARK  100  A    between atoms: _243  and  _244
REMARK  101  A    between atoms: _243  and  _246
REMARK  102  A    between atoms: _246  and  _247
REMARK  103  A    between atoms: _250  and  _252
REMARK  104  A    between atoms: _252  and  _253
REMARK  105  A    between atoms: _252  and  _255
REMARK  106  A    between atoms: _255  and  _256
REMARK  107  A    between atoms: _259  and  _261
REMARK  108  A    between atoms: _261  and  _262
REMARK  109  A    between atoms: _264  and  _266
REMARK  110  A    between atoms: _266  and  _267
REMARK  111  A    between atoms: _266  and  _269
REMARK  112  A    between atoms: _269  and  _270
REMARK  113  A    between atoms: _270  and  _271
REMARK  114  A    between atoms: _271  and  _272
REMARK  115  A    between atoms: _281  and  _283
REMARK  116  A    between atoms: _283  and  _284
REMARK  117  A    between atoms: _283  and  _286
REMARK  118  A    between atoms: _286  and  _287
REMARK  119  A    between atoms: _292  and  _294
REMARK  120  A    between atoms: _294  and  _295
REMARK  121  A    between atoms: _294  and  _297
REMARK  122  A    between atoms: _297  and  _298
REMARK  123  A    between atoms: _298  and  _299
REMARK  124  A    between atoms: _299  and  _300
REMARK  125  A    between atoms: _309  and  _311
REMARK  126  A    between atoms: _311  and  _312
REMARK  127  A    between atoms: _311  and  _314
REMARK  128  A    between atoms: _314  and  _315
REMARK  129  A    between atoms: _318  and  _320
REMARK  130  A    between atoms: _320  and  _321
REMARK  131  A    between atoms: _320  and  _323
REMARK  132  A    between atoms: _323  and  _324
REMARK  133  A    between atoms: _327  and  _329
REMARK  134  A    between atoms: _329  and  _330
REMARK  135  A    between atoms: _329  and  _332
REMARK  136  A    between atoms: _332  and  _333
REMARK  137  A    between atoms: _336  and  _338
REMARK  138  A    between atoms: _338  and  _339
REMARK  139  A    between atoms: _338  and  _341
REMARK  140  A    between atoms: _341  and  _342
REMARK  141  A    between atoms: _345  and  _347
REMARK  142  A    between atoms: _347  and  _348
REMARK  143  A    between atoms: _350  and  _352
REMARK  144  A    between atoms: _352  and  _353
REMARK  145  A    between atoms: _356  and  _358
REMARK  146  A    between atoms: _358  and  _359
REMARK  147  A    between atoms: _358  and  _361
REMARK  148  A    between atoms: _361  and  _362
REMARK  149  A    between atoms: _365  and  _367
REMARK  150  A    between atoms: _367  and  _368
REMARK  151  A    between atoms: _367  and  _370
REMARK  152  A    between atoms: _370  and  _371
REMARK  153  A    between atoms: _374  and  _376
REMARK  154  A    between atoms: _376  and  _377
REMARK  155  A    between atoms: _376  and  _379
REMARK  156  A    between atoms: _379  and  _380
REMARK  157  A    between atoms: _383  and  _385
REMARK  158  A    between atoms: _385  and  _386
REMARK  159  A    between atoms: _385  and  _388
REMARK  160  A    between atoms: _388  and  _389
REMARK  161  A    between atoms: _392  and  _394
REMARK  162  A    between atoms: _394  and  _395
REMARK  163  A    between atoms: _394  and  _397
REMARK  164  A    between atoms: _397  and  _398
REMARK  165  A    between atoms: _398  and  _399
REMARK  166  A    between atoms: _401  and  _403
REMARK  167  A    between atoms: _403  and  _404
REMARK  168  A    between atoms: _403  and  _406
REMARK  169  A    between atoms: _409  and  _411
REMARK  170  A    between atoms: _411  and  _412
REMARK  171  A    between atoms: _414  and  _416
REMARK  172  A    between atoms: _416  and  _417
REMARK  173  A    between atoms: _419  and  _421
REMARK  174  A    between atoms: _421  and  _422
REMARK  175  A    between atoms: _421  and  _424
REMARK  176  A    between atoms: _424  and  _425
REMARK  177  A    between atoms: _428  and  _430
REMARK  178  A    between atoms: _430  and  _431
REMARK  179  A    between atoms: _433  and  _435
REMARK  180  A    between atoms: _435  and  _436
REMARK  181  A    between atoms: _438  and  _440
REMARK  182  A    between atoms: _440  and  _441
REMARK  183  A    between atoms: _440  and  _443
REMARK  184  A    between atoms: _443  and  _444
REMARK  185  A    between atoms: _447  and  _449
REMARK  186  A    between atoms: _449  and  _450
REMARK  187  A    between atoms: _449  and  _452
REMARK  188  A    between atoms: _455  and  _457
REMARK  189  A    between atoms: _457  and  _458
REMARK  190  A    between atoms: _457  and  _460
REMARK  191  A    between atoms: _460  and  _461
REMARK  192  A    between atoms: _465  and  _466
REMARK  193  A    between atoms: _471  and  _473
REMARK  194  A    between atoms: _473  and  _474
REMARK  195  A    between atoms: _473  and  _476
REMARK  196  A    between atoms: _476  and  _477
REMARK  197  A    between atoms: _481  and  _482
REMARK  198  A    between atoms: _487  and  _489
REMARK  199  A    between atoms: _489  and  _490
REMARK  200  A    between atoms: _489  and  _492
REMARK  201  A    between atoms: _492  and  _493
REMARK  202  A    between atoms: _496  and  _498
REMARK  203  A    between atoms: _498  and  _499
REMARK  204  A    between atoms: _498  and  _501
REMARK  205  A    between atoms: _501  and  _502
REMARK  206  A    between atoms: _507  and  _509
REMARK  207  A    between atoms: _509  and  _510
REMARK  208  A    between atoms: _509  and  _512
REMARK  209  A    between atoms: _512  and  _513
REMARK  210  A    between atoms: _516  and  _518
REMARK  211  A    between atoms: _518  and  _519
REMARK  212  A    between atoms: _518  and  _521
REMARK  213  A    between atoms: _521  and  _522
REMARK  214  A    between atoms: _525  and  _527
REMARK  215  A    between atoms: _527  and  _528
REMARK  216  A    between atoms: _530  and  _532
REMARK  217  A    between atoms: _532  and  _533
REMARK  218  A    between atoms: _532  and  _535
REMARK  219  A    between atoms: _535  and  _536
REMARK  220  A    between atoms: _536  and  _537
REMARK  221  A    between atoms: _537  and  _538
REMARK  222  A    between atoms: _547  and  _549
REMARK  223  A    between atoms: _549  and  _550
REMARK  224  A    between atoms: _549  and  _552
REMARK  225  A    between atoms: _552  and  _553
REMARK                            x       y       z     vdW  Elec       q    Type
REMARK                         _______ _______ _______ _____ _____    ______ ____
ROOT
ATOM      1  C   GLY A   5       4.038   3.070  39.180  0.00  0.00    +0.243 C 
ATOM      2  N   ALA A   6       3.469   2.619  40.319  0.00  0.00    -0.297 N 
ATOM      3  H   ALA A   6       3.043   1.672  40.371  0.00  0.00    +0.150 HD
ATOM      4  O   GLY A   5       4.514   4.188  39.090  0.00  0.00    -0.273 OA
ENDROOT
BRANCH   2   5
ATOM      5  CA  ALA A   6       3.474   3.538  41.509  0.00  0.00    +0.149 C 
ATOM      6  CB  ALA A   6       2.006   3.788  41.980  0.00  0.00    +0.031 C 
BRANCH   5   7
ATOM      7  C   ALA A   6       4.313   2.923  42.661  0.00  0.00    +0.241 C 
ATOM      8  N   ASP A   7       5.205   3.748  43.214  0.00  0.00    -0.297 N 
ATOM      9  H   ASP A   7       5.284   4.723  42.861  0.00  0.00    +0.150 HD
ATOM     10  O   ALA A   6       4.201   1.699  42.964  0.00  0.00    -0.273 OA
BRANCH   8  11
ATOM     11  CA  ASP A   7       6.102   3.297  44.341  0.00  0.00    +0.160 C 
BRANCH  11  12
ATOM     12  C   ASP A   7       5.169   3.127  45.533  0.00  0.00    +0.241 C 
ATOM     13  O   ASP A   7       5.300   2.196  46.311  0.00  0.00    -0.273 OA
ATOM     14  N   ASP A   8       4.159   3.997  45.628  0.00  0.00    -0.297 N 
ATOM     15  H   ASP A   8       3.927   4.598  44.812  0.00  0.00    +0.150 HD
BRANCH  14  16
ATOM     16  CA  ASP A   8       3.356   4.124  46.882  0.00  0.00    +0.160 C 
BRANCH  16  17
ATOM     17  C   ASP A   8       1.882   3.834  46.673  0.00  0.00    +0.241 C 
ATOM     18  N   THR A   9       1.183   3.549  47.783  0.00  0.00    -0.295 N 
ATOM     19  H   THR A   9       1.709   3.422  48.671  0.00  0.00    +0.150 HD
ATOM     20  O   ASP A   8       1.382   3.996  45.577  0.00  0.00    -0.273 OA
BRANCH  18  21
ATOM     21  CA  THR A   9      -0.228   3.411  47.819  0.00  0.00    +0.176 C 
BRANCH  21  22
ATOM     22  C   THR A   9      -0.828   4.727  48.281  0.00  0.00    +0.243 C 
ATOM     23  O   THR A   9      -0.462   5.223  49.342  0.00  0.00    -0.273 OA
ATOM     24  N   ILE A  10      -1.767   5.286  47.497  0.00  0.00    -0.298 N 
ATOM     25  H   ILE A  10      -2.084   4.745  46.667  0.00  0.00    +0.150 HD
BRANCH  24  26
ATOM     26  CA  ILE A  10      -2.361   6.563  47.717  0.00  0.00    +0.137 C 
BRANCH  26  27
ATOM     27  CB  ILE A  10      -1.746   7.710  46.704  0.00  0.00    +0.026 C 
ATOM     28  CG2 ILE A  10      -2.165   9.115  47.120  0.00  0.00    +0.002 C 
BRANCH  27  29
ATOM     29  CG1 ILE A  10      -0.207   7.553  46.626  0.00  0.00    +0.002 C 
ATOM     30  CD1 ILE A  10       0.630   8.595  45.763  0.00  0.00    +0.000 C 
ENDBRANCH  27  29
ENDBRANCH  26  27
BRANCH  26  31
ATOM     31  C   ILE A  10      -3.873   6.498  47.540  0.00  0.00    +0.227 C 
ATOM     32  O   ILE A  10      -4.372   6.153  46.461  0.00  0.00    -0.286 OA
ENDBRANCH  26  31
ENDBRANCH  24  26
ENDBRANCH  21  22
BRANCH  21  33
ATOM     33  CB  THR A   9      -0.590   2.232  48.733  0.00  0.00    +0.137 C 
ATOM     34  CG2 THR A   9      -2.112   2.088  48.960  0.00  0.00    +0.034 C 
BRANCH  33  35
ATOM     35  OG1 THR A   9      -0.103   1.076  48.132  0.00  0.00    -0.382 OA
ATOM     36  HG1 THR A   9       0.879   1.147  48.029  0.00  0.00    +0.210 HD
ENDBRANCH  33  35
ENDBRANCH  21  33
ENDBRANCH  18  21
ENDBRANCH  16  17
BRANCH  16  37
ATOM     37  CB  ASP A   8       3.443   5.598  47.311  0.00  0.00    +0.143 C 
BRANCH  37  38
ATOM     38  CG  ASP A   8       4.933   6.077  47.522  0.00  0.00    +0.367 C 
ATOM     39  OD2 ASP A   8       5.761   5.267  47.878  0.00  0.00    -0.246 OA
ATOM     40  OD1 ASP A   8       5.223   7.249  47.257  0.00  0.00    -0.246 OA
ENDBRANCH  37  38
ENDBRANCH  16  37
ENDBRANCH  14  16
ENDBRANCH  11  12
BRANCH  11  41
ATOM     41  CB  ASP A   7       7.111   4.426  44.670  0.00  0.00    +0.143 C 
BRANCH  41  42
ATOM     42  CG  ASP A   7       8.213   4.545  43.632  0.00  0.00    +0.367 C 
ATOM     43  OD2 ASP A   7       8.959   5.557  43.714  0.00  0.00    -0.246 OA
ATOM     44  OD1 ASP A   7       8.327   3.679  42.698  0.00  0.00    -0.246 OA
ENDBRANCH  41  42
ENDBRANCH  11  41
ENDBRANCH   8  11
ENDBRANCH   5   7
ENDBRANCH   2   5
BRANCH   1  45
ATOM     45  CA  GLY A   5       4.083   2.115  37.936  0.00  0.00    +0.176 C 
BRANCH  45  48
ATOM     46  C   THR A   4       3.757  -0.164  38.767  0.00  0.00    +0.243 C 
ATOM     47  O   THR A   4       4.935  -0.323  39.126  0.00  0.00    -0.273 OA
ATOM     48  N   GLY A   5       3.327   0.923  38.170  0.00  0.00    -0.295 N 
ATOM     49  H   GLY A   5       2.342   0.917  37.835  0.00  0.00    +0.150 HD
BRANCH  46  50
ATOM     50  CA  THR A   4       2.769  -1.309  38.889  0.00  0.00    +0.176 C 
BRANCH  50  53
ATOM     51  C   ASP A   3       0.849  -0.176  39.837  0.00  0.00    +0.241 C 
ATOM     52  O   ASP A   3       1.571   0.269  40.785  0.00  0.00    -0.273 OA
ATOM     53  N   THR A   4       1.345  -0.906  38.838  0.00  0.00    -0.295 N 
ATOM     54  H   THR A   4       0.743  -1.187  38.038  0.00  0.00    +0.150 HD
BRANCH  51  55
ATOM     55  CA  ASP A   3      -0.664   0.181  39.763  0.00  0.00    +0.160 C 
BRANCH  55  57
ATOM     56  C   LEU A   2      -2.403  -1.467  39.946  0.00  0.00    +0.241 C 
ATOM     57  N   ASP A   3      -1.381  -0.820  40.539  0.00  0.00    -0.297 N 
ATOM     58  H   ASP A   3      -1.112  -1.029  41.522  0.00  0.00    +0.150 HD
ATOM     59  O   LEU A   2      -2.571  -1.476  38.676  0.00  0.00    -0.273 OA
BRANCH  56  60
ATOM     60  CA  LEU A   2      -3.470  -2.067  40.865  0.00  0.00    +0.149 C 
BRANCH  60  63
ATOM     61  C   LEU A   1      -4.923  -0.127  41.084  0.00  0.00    +0.238 C 
ATOM     62  O   LEU A   1      -4.033   0.465  41.760  0.00  0.00    -0.274 OA
ATOM     63  N   LEU A   2      -4.753  -1.364  40.654  0.00  0.00    -0.297 N 
ATOM     64  H   LEU A   2      -5.530  -1.849  40.162  0.00  0.00    +0.150 HD
BRANCH  61  65
ATOM     65  CA  LEU A   1      -6.192   0.589  40.732  0.00  0.00    +0.145 C 
BRANCH  65  66
ATOM     66  N   LEU A   1      -6.896   1.005  41.938  0.00  0.00    -0.238 NA
ATOM     67  H   LEU A   1      -6.620   1.912  42.367  0.00  0.00    +0.142 HD
ENDBRANCH  65  66
BRANCH  65  68
ATOM     68  CB  LEU A   1      -5.907   1.935  39.958  0.00  0.00    +0.026 C 
BRANCH  68  69
ATOM     69  CG  LEU A   1      -5.029   1.781  38.682  0.00  0.00    +0.002 C 
ATOM     70  CD2 LEU A   1      -4.773   3.141  38.007  0.00  0.00    +0.000 C 
ATOM     71  CD1 LEU A   1      -5.833   0.918  37.686  0.00  0.00    +0.000 C 
ENDBRANCH  68  69
ENDBRANCH  65  68
ENDBRANCH  61  65
ENDBRANCH  60  63
BRANCH  60  72
ATOM     72  CB  LEU A   2      -3.637  -3.511  40.509  0.00  0.00    +0.029 C 
BRANCH  72  73
ATOM     73  CG  LEU A   2      -4.707  -4.295  41.376  0.00  0.00    +0.002 C 
ATOM     74  CD2 LEU A   2      -4.409  -4.179  42.880  0.00  0.00    +0.000 C 
ATOM     75  CD1 LEU A   2      -4.751  -5.749  40.929  0.00  0.00    +0.000 C 
ENDBRANCH  72  73
ENDBRANCH  60  72
ENDBRANCH  56  60
ENDBRANCH  55  57
BRANCH  55  76
ATOM     76  CB  ASP A   3      -0.950   1.575  40.357  0.00  0.00    +0.143 C 
BRANCH  76  77
ATOM     77  CG  ASP A   3      -0.358   2.681  39.553  0.00  0.00    +0.367 C 
ATOM     78  OD2 ASP A   3      -0.613   3.877  39.853  0.00  0.00    -0.246 OA
ATOM     79  OD1 ASP A   3       0.414   2.317  38.600  0.00  0.00    -0.246 OA
ENDBRANCH  76  77
ENDBRANCH  55  76
ENDBRANCH  51  55
ENDBRANCH  50  53
BRANCH  50  80
ATOM     80  CB  THR A   4       3.144  -2.411  37.900  0.00  0.00    +0.137 C 
ATOM     81  CG2 THR A   4       2.432  -3.723  38.182  0.00  0.00    +0.034 C 
BRANCH  80  82
ATOM     82  OG1 THR A   4       2.831  -1.894  36.579  0.00  0.00    -0.382 OA
ATOM     83  HG1 THR A   4       3.358  -1.072  36.414  0.00  0.00    +0.210 HD
ENDBRANCH  80  82
ENDBRANCH  50  80
ENDBRANCH  46  50
ENDBRANCH  45  48
ENDBRANCH   1  45
TORSDOF 36
REMARK  Name = ../refined-set-2016/3s56/3s56_pocket.pdb
REMARK  225 active torsions:
REMARK  status: ('A' for Active; 'I' for Inactive)
REMARK    1  A    between atoms: _1  and  _3
REMARK    2  A    between atoms: _3  and  _4
REMARK    3  A    between atoms: _3  and  _6
REMARK    4  A    between atoms: _6  and  _7
REMARK    5  A    between atoms: _7  and  _8
REMARK    6  A    between atoms: _8  and  _9
REMARK    7  A    between atoms: _18  and  _20
REMARK    8  A    between atoms: _20  and  _21
REMARK    9  A    between atoms: _20  and  _23
REMARK   10  A    between atoms: _23  and  _24
REMARK   11  A    between atoms: _27  and  _29
REMARK   12  A    between atoms: _29  and  _30
REMARK   13  A    between atoms: _29  and  _32
REMARK   14  A    between atoms: _32  and  _33
REMARK   15  A    between atoms: _36  and  _38
REMARK   16  A    between atoms: _38  and  _39
REMARK   17  A    between atoms: _38  and  _41
REMARK   18  A    between atoms: _41  and  _42
REMARK   19  A    between atoms: _45  and  _47
REMARK   20  A    between atoms: _47  and  _48
REMARK   21  A    between atoms: _47  and  _50
REMARK   22  A    between atoms: _50  and  _51
REMARK   23  A    between atoms: _54  and  _56
REMARK   24  A    between atoms: _56  and  _57
REMARK   25  A    between atoms: _59  and  _61
REMARK   26  A    between atoms: _61  and  _62
REMARK   27  A    between atoms: _65  and  _67
REMARK   28  A    between atoms: _67  and  _68
REMARK   29  A    between atoms: _67  and  _70
REMARK   30  A    between atoms: _70  and  _71
REMARK   31  A    between atoms: _74  and  _76
REMARK   32  A    between atoms: _76  and  _77
REMARK   33  A    between atoms: _76  and  _79
REMARK   34  A    between atoms: _79  and  _80
REMARK   35  A    between atoms: _83  and  _85
REMARK   36  A    between atoms: _85  and  _86
REMARK   37  A    between atoms: _85  and  _88
REMARK   38  A    between atoms: _88  and  _89
REMARK   39  A    between atoms: _92  and  _94
REMARK   40  A    between atoms: _94  and  _95
REMARK   41  A    between atoms: _94  and  _97
REMARK   42  A    between atoms: _97  and  _98
REMARK   43  A    between atoms: _101  and  _103
REMARK   44  A    between atoms: _103  and  _104
REMARK   45  A    between atoms: _103  and  _106
REMARK   46  A    between atoms: _106  and  _107
REMARK   47  A    between atoms: _107  and  _108
REMARK   48  A    between atoms: _108  and  _109
REMARK   49  A    between atoms: _109  and  _110
REMARK   50  A    between atoms: _114  and  _116
REMARK   51  A    between atoms: _116  and  _117
REMARK   52  A    between atoms: _116  and  _119
REMARK   53  A    between atoms: _119  and  _120
REMARK   54  A    between atoms: _120  and  _121
REMARK   55  A    between atoms: _123  and  _125
REMARK   56  A    between atoms: _125  and  _126
REMARK   57  A    between atoms: _125  and  _128
REMARK   58  A    between atoms: _131  and  _133
REMARK   59  A    between atoms: _133  and  _134
REMARK   60  A    between atoms: _136  and  _138
REMARK   61  A    between atoms: _138  and  _139
REMARK   62  A    between atoms: _141  and  _143
REMARK   63  A    between atoms: _143  and  _144
REMARK   64  A    between atoms: _143  and  _146
REMARK   65  A    between atoms: _146  and  _147
REMARK   66  A    between atoms: _150  and  _152
REMARK   67  A    between atoms: _152  and  _153
REMARK   68  A    between atoms: _155  and  _157
REMARK   69  A    between atoms: _157  and  _158
REMARK   70  A    between atoms: _160  and  _162
REMARK   71  A    between atoms: _162  and  _163
REMARK   72  A    between atoms: _162  and  _165
REMARK   73  A    between atoms: _165  and  _166
REMARK   74  A    between atoms: _172  and  _174
REMARK   75  A    between atoms: _174  and  _175
REMARK   76  A    between atoms: _174  and  _177
REMARK   77  A    between atoms: _177  and  _178
REMARK   78  A    between atoms: _181  and  _183
REMARK   79  A    between atoms: _183  and  _184
REMARK   80  A    between atoms: _183  and  _186
REMARK   81  A    between atoms: _189  and  _191
REMARK   82  A    between atoms: _191  and  _192
REMARK   83  A    between atoms: _191  and  _194
REMARK   84  A    between atoms: _194  and  _195
REMARK   85  A    between atoms: _199  and  _200
REMARK   86  A    between atoms: _205  and  _207
REMARK   87  A    between atoms: _207  and  _208
REMARK   88  A    between atoms: _207  and  _210
REMARK   89  A    between atoms: _210  and  _211
REMARK   90  A    between atoms: _215  and  _216
REMARK   91  A    between atoms: _221  and  _223
REMARK   92  A    between atoms: _223  and  _224
REMARK   93  A    between atoms: _223  and  _226
REMARK   94  A    between atoms: _226  and  _227
REMARK   95  A    between atoms: _230  and  _232
REMARK   96  A    between atoms: _232  and  _233
REMARK   97  A    between atoms: _232  and  _235
REMARK   98  A    between atoms: _235  and  _236
REMARK   99  A    between atoms: _241  and  _243
REMARK  100  A    between atoms: _243  and  _244
REMARK  101  A    between atoms: _243  and  _246
REMARK  102  A    between atoms: _246  and  _247
REMARK  103  A    between atoms: _250  and  _252
REMARK  104  A    between atoms: _252  and  _253
REMARK  105  A    between atoms: _252  and  _255
REMARK  106  A    between atoms: _255  and  _256
REMARK  107  A    between atoms: _259  and  _261
REMARK  108  A    between atoms: _261  and  _262
REMARK  109  A    between atoms: _264  and  _266
REMARK  110  A    between atoms: _266  and  _267
REMARK  111  A    between atoms: _266  and  _269
REMARK  112  A    between atoms: _269  and  _270
REMARK  113  A    between atoms: _270  and  _271
REMARK  114  A    between atoms: _271  and  _272
REMARK  115  A    between atoms: _281  and  _283
REMARK  116  A    between atoms: _283  and  _284
REMARK  117  A    between atoms: _283  and  _286
REMARK  118  A    between atoms: _286  and  _287
REMARK  119  A    between atoms: _292  and  _294
REMARK  120  A    between atoms: _294  and  _295
REMARK  121  A    between atoms: _294  and  _297
REMARK  122  A    between atoms: _297  and  _298
REMARK  123  A    between atoms: _298  and  _299
REMARK  124  A    between atoms: _299  and  _300
REMARK  125  A    between atoms: _309  and  _311
REMARK  126  A    between atoms: _311  and  _312
REMARK  127  A    between atoms: _311  and  _314
REMARK  128  A    between atoms: _314  and  _315
REMARK  129  A    between atoms: _318  and  _320
REMARK  130  A    between atoms: _320  and  _321
REMARK  131  A    between atoms: _320  and  _323
REMARK  132  A    between atoms: _323  and  _324
REMARK  133  A    between atoms: _327  and  _329
REMARK  134  A    between atoms: _329  and  _330
REMARK  135  A    between atoms: _329  and  _332
REMARK  136  A    between atoms: _332  and  _333
REMARK  137  A    between atoms: _336  and  _338
REMARK  138  A    between atoms: _338  and  _339
REMARK  139  A    between atoms: _338  and  _341
REMARK  140  A    between atoms: _341  and  _342
REMARK  141  A    between atoms: _345  and  _347
REMARK  142  A    between atoms: _347  and  _348
REMARK  143  A    between atoms: _350  and  _352
REMARK  144  A    between atoms: _352  and  _353
REMARK  145  A    between atoms: _356  and  _358
REMARK  146  A    between atoms: _358  and  _359
REMARK  147  A    between atoms: _358  and  _361
REMARK  148  A    between atoms: _361  and  _362
REMARK  149  A    between atoms: _365  and  _367
REMARK  150  A    between atoms: _367  and  _368
REMARK  151  A    between atoms: _367  and  _370
REMARK  152  A    between atoms: _370  and  _371
REMARK  153  A    between atoms: _374  and  _376
REMARK  154  A    between atoms: _376  and  _377
REMARK  155  A    between atoms: _376  and  _379
REMARK  156  A    between atoms: _379  and  _380
REMARK  157  A    between atoms: _383  and  _385
REMARK  158  A    between atoms: _385  and  _386
REMARK  159  A    between atoms: _385  and  _388
REMARK  160  A    between atoms: _388  and  _389
REMARK  161  A    between atoms: _392  and  _394
REMARK  162  A    between atoms: _394  and  _395
REMARK  163  A    between atoms: _394  and  _397
REMARK  164  A    between atoms: _397  and  _398
REMARK  165  A    between atoms: _398  and  _399
REMARK  166  A    between atoms: _401  and  _403
REMARK  167  A    between atoms: _403  and  _404
REMARK  168  A    between atoms: _403  and  _406
REMARK  169  A    between atoms: _409  and  _411
REMARK  170  A    between atoms: _411  and  _412
REMARK  171  A    between atoms: _414  and  _416
REMARK  172  A    between atoms: _416  and  _417
REMARK  173  A    between atoms: _419  and  _421
REMARK  174  A    between atoms: _421  and  _422
REMARK  175  A    between atoms: _421  and  _424
REMARK  176  A    between atoms: _424  and  _425
REMARK  177  A    between atoms: _428  and  _430
REMARK  178  A    between atoms: _430  and  _431
REMARK  179  A    between atoms: _433  and  _435
REMARK  180  A    between atoms: _435  and  _436
REMARK  181  A    between atoms: _438  and  _440
REMARK  182  A    between atoms: _440  and  _441
REMARK  183  A    between atoms: _440  and  _443
REMARK  184  A    between atoms: _443  and  _444
REMARK  185  A    between atoms: _447  and  _449
REMARK  186  A    between atoms: _449  and  _450
REMARK  187  A    between atoms: _449  and  _452
REMARK  188  A    between atoms: _455  and  _457
REMARK  189  A    between atoms: _457  and  _458
REMARK  190  A    between atoms: _457  and  _460
REMARK  191  A    between atoms: _460  and  _461
REMARK  192  A    between atoms: _465  and  _466
REMARK  193  A    between atoms: _471  and  _473
REMARK  194  A    between atoms: _473  and  _474
REMARK  195  A    between atoms: _473  and  _476
REMARK  196  A    between atoms: _476  and  _477
REMARK  197  A    between atoms: _481  and  _482
REMARK  198  A    between atoms: _487  and  _489
REMARK  199  A    between atoms: _489  and  _490
REMARK  200  A    between atoms: _489  and  _492
REMARK  201  A    between atoms: _492  and  _493
REMARK  202  A    between atoms: _496  and  _498
REMARK  203  A    between atoms: _498  and  _499
REMARK  204  A    between atoms: _498  and  _501
REMARK  205  A    between atoms: _501  and  _502
REMARK  206  A    between atoms: _507  and  _509
REMARK  207  A    between atoms: _509  and  _510
REMARK  208  A    between atoms: _509  and  _512
REMARK  209  A    between atoms: _512  and  _513
REMARK  210  A    between atoms: _516  and  _518
REMARK  211  A    between atoms: _518  and  _519
REMARK  212  A    between atoms: _518  and  _521
REMARK  213  A    between atoms: _521  and  _522
REMARK  214  A    between atoms: _525  and  _527
REMARK  215  A    between atoms: _527  and  _528
REMARK  216  A    between atoms: _530  and  _532
REMARK  217  A    between atoms: _532  and  _533
REMARK  218  A    between atoms: _532  and  _535
REMARK  219  A    between atoms: _535  and  _536
REMARK  220  A    between atoms: _536  and  _537
REMARK  221  A    between atoms: _537  and  _538
REMARK  222  A    between atoms: _547  and  _549
REMARK  223  A    between atoms: _549  and  _550
REMARK  224  A    between atoms: _549  and  _552
REMARK  225  A    between atoms: _552  and  _553
REMARK                            x       y       z     vdW  Elec       q    Type
REMARK                         _______ _______ _______ _____ _____    ______ ____
ROOT
ATOM      1  C   GLY A   5       3.985  12.697  38.194  0.00  0.00    +0.243 C 
ATOM      2  O   GLY A   5       4.633  13.754  38.224  0.00  0.00    -0.273 OA
ATOM      3  N   ILE A   6       3.268  12.296  37.140  0.00  0.00    -0.297 N 
ATOM      4  H   ILE A   6       2.784  11.376  37.162  0.00  0.00    +0.150 HD
ENDROOT
BRANCH   1   5
ATOM      5  CA  GLY A   5       4.038  11.763  39.383  0.00  0.00    +0.176 C 
BRANCH   5   8
ATOM      6  C   GLY A   4       4.479  12.131  41.745  0.00  0.00    +0.243 C 
ATOM      7  O   GLY A   4       4.358  10.921  42.018  0.00  0.00    -0.273 OA
ATOM      8  N   GLY A   5       4.328  12.610  40.544  0.00  0.00    -0.295 N 
ATOM      9  H   GLY A   5       4.417  13.636  40.402  0.00  0.00    +0.150 HD
BRANCH   6  10
ATOM     10  CA  GLY A   4       4.820  13.190  42.756  0.00  0.00    +0.176 C 
BRANCH  10  13
ATOM     11  C   VAL A   3       4.318  13.245  45.109  0.00  0.00    +0.241 C 
ATOM     12  O   VAL A   3       3.493  14.140  44.966  0.00  0.00    -0.273 OA
ATOM     13  N   GLY A   4       4.956  12.651  44.114  0.00  0.00    -0.295 N 
ATOM     14  H   GLY A   4       5.546  11.813  44.292  0.00  0.00    +0.150 HD
BRANCH  11  15
ATOM     15  CA  VAL A   3       4.673  12.758  46.496  0.00  0.00    +0.149 C 
BRANCH  15  18
ATOM     16  C   MET A   2       5.251  14.418  48.162  0.00  0.00    +0.241 C 
ATOM     17  O   MET A   2       6.341  13.866  48.304  0.00  0.00    -0.273 OA
ATOM     18  N   VAL A   3       4.313  13.855  47.400  0.00  0.00    -0.297 N 
ATOM     19  H   VAL A   3       3.330  14.192  47.447  0.00  0.00    +0.150 HD
BRANCH  16  20
ATOM     20  CA  MET A   2       4.857  15.617  49.059  0.00  0.00    +0.149 C 
BRANCH  20  23
ATOM     21  C   LYS A   1       4.292  15.099  51.420  0.00  0.00    +0.238 C 
ATOM     22  O   LYS A   1       3.094  15.216  51.255  0.00  0.00    -0.274 OA
ATOM     23  N   MET A   2       5.216  15.292  50.469  0.00  0.00    -0.297 N 
ATOM     24  H   MET A   2       6.221  15.212  50.724  0.00  0.00    +0.150 HD
BRANCH  21  25
ATOM     25  CA  LYS A   1       4.795  14.757  52.835  0.00  0.00    +0.145 C 
BRANCH  25  26
ATOM     26  N   LYS A   1       3.779  14.938  53.784  0.00  0.00    -0.238 NA
ATOM     27  H   LYS A   1       2.779  14.990  53.502  0.00  0.00    +0.142 HD
ENDBRANCH  25  26
BRANCH  25  28
ATOM     28  CB  LYS A   1       5.193  13.308  52.987  0.00  0.00    +0.026 C 
BRANCH  28  29
ATOM     29  CG  LYS A   1       5.491  12.521  51.797  0.00  0.00    -0.000 C 
BRANCH  29  30
ATOM     30  CD  LYS A   1       5.785  11.093  52.281  0.00  0.00    -0.024 C 
BRANCH  30  31
ATOM     31  CE  LYS A   1       6.729  10.346  51.356  0.00  0.00    -0.086 C 
BRANCH  31  32
ATOM     32  NZ  LYS A   1       6.605   8.820  51.599  0.00  0.00    +0.380 N 
ATOM     33  HZ1 LYS A   1       6.850   8.606  52.587  0.00  0.00    -0.089 HD
ATOM     34  HZ2 LYS A   1       5.628   8.518  51.410  0.00  0.00    -0.089 HD
ATOM     35  HZ3 LYS A   1       7.254   8.315  50.962  0.00  0.00    -0.089 HD
ENDBRANCH  31  32
ENDBRANCH  30  31
ENDBRANCH  29  30
ENDBRANCH  28  29
ENDBRANCH  25  28
ENDBRANCH  21  25
ENDBRANCH  20  23
BRANCH  20  36
ATOM     36  CB  MET A   2       5.604  16.860  48.567  0.00  0.00    +0.041 C 
BRANCH  36  37
ATOM     37  CG  MET A   2       5.430  18.140  49.360  0.00  0.00    +0.060 C 
BRANCH  37  38
ATOM     38  SD  MET A   2       3.776  18.713  49.034  0.00  0.00    -0.139 S 
ATOM     39  CE  MET A   2       3.754  20.353  49.901  0.00  0.00    +0.069 C 
ENDBRANCH  37  38
ENDBRANCH  36  37
ENDBRANCH  20  36
ENDBRANCH  16  20
ENDBRANCH  15  18
BRANCH  15  40
ATOM     40  CB  VAL A   3       3.982  11.425  46.827  0.00  0.00    +0.027 C 
ATOM     41  CG2 VAL A   3       4.638  10.806  48.142  0.00  0.00    +0.002 C 
ATOM     42  CG1 VAL A   3       2.489  11.614  47.049  0.00  0.00    +0.002 C 
ENDBRANCH  15  40
ENDBRANCH  11  15
ENDBRANCH  10  13
ENDBRANCH   6  10
ENDBRANCH   5   8
ENDBRANCH   1   5
BRANCH   3  43
ATOM     43  CA  ILE A   6       3.161  13.146  35.956  0.00  0.00    +0.149 C 
BRANCH  43  44
ATOM     44  C   ILE A   6       2.448  14.428  36.337  0.00  0.00    +0.241 C 
ATOM     45  O   ILE A   6       1.390  14.425  37.013  0.00  0.00    -0.273 OA
ATOM     46  N   GLY A   7       2.973  15.563  35.951  0.00  0.00    -0.295 N 
ATOM     47  H   GLY A   7       3.871  15.628  35.430  0.00  0.00    +0.150 HD
BRANCH  46  48
ATOM     48  CA  GLY A   7       2.155  16.763  36.333  0.00  0.00    +0.176 C 
BRANCH  48  49
ATOM     49  C   GLY A   7       2.555  17.529  37.605  0.00  0.00    +0.243 C 
ATOM     50  N   GLY A   8       3.484  16.992  38.396  0.00  0.00    -0.295 N 
ATOM     51  H   GLY A   8       3.898  16.072  38.143  0.00  0.00    +0.150 HD
ATOM     52  O   GLY A   7       2.053  18.639  37.825  0.00  0.00    -0.273 OA
BRANCH  50  53
ATOM     53  CA  GLY A   8       3.928  17.661  39.598  0.00  0.00    +0.176 C 
BRANCH  53  54
ATOM     54  C   GLY A   8       3.658  16.850  40.874  0.00  0.00    +0.243 C 
ATOM     55  N   PHE A   9       3.327  17.528  41.951  0.00  0.00    -0.297 N 
ATOM     56  H   PHE A   9       3.066  18.531  41.865  0.00  0.00    +0.150 HD
ATOM     57  O   GLY A   8       3.694  15.625  40.866  0.00  0.00    -0.273 OA
BRANCH  55  58
ATOM     58  CA  PHE A   9       3.320  16.874  43.305  0.00  0.00    +0.153 C 
BRANCH  58  59
ATOM     59  C   PHE A   9       2.077  17.190  44.050  0.00  0.00    +0.241 C 
ATOM     60  N   ILE A  10       1.650  16.282  44.936  0.00  0.00    -0.298 N 
ATOM     61  H   ILE A  10       2.159  15.378  45.013  0.00  0.00    +0.150 HD
ATOM     62  O   PHE A   9       1.499  18.223  43.834  0.00  0.00    -0.273 OA
BRANCH  60  63
ATOM     63  CA  ILE A  10       0.501  16.514  45.793  0.00  0.00    +0.137 C 
BRANCH  63  64
ATOM     64  C   ILE A  10       0.984  16.402  47.292  0.00  0.00    +0.227 C 
ATOM     65  O   ILE A  10       2.025  15.853  47.547  0.00  0.00    -0.286 OA
ENDBRANCH  63  64
BRANCH  63  66
ATOM     66  CB  ILE A  10      -0.692  15.664  45.513  0.00  0.00    +0.026 C 
ATOM     67  CG2 ILE A  10      -1.214  16.029  44.022  0.00  0.00    +0.002 C 
BRANCH  66  68
ATOM     68  CG1 ILE A  10      -0.376  14.156  45.711  0.00  0.00    +0.002 C 
ATOM     69  CD1 ILE A  10      -1.699  13.393  45.494  0.00  0.00    +0.000 C 
ENDBRANCH  66  68
ENDBRANCH  63  66
ENDBRANCH  60  63
ENDBRANCH  58  59
BRANCH  58  70
ATOM     70  CB  PHE A   9       4.508  17.417  44.097  0.00  0.00    +0.055 C 
BRANCH  70  71
ATOM     71  CG  PHE A   9       5.801  17.191  43.398  0.00  0.00    -0.020 A 
ATOM     72  CD2 PHE A   9       6.518  16.036  43.581  0.00  0.00    -0.004 A 
ATOM     73  CE2 PHE A   9       7.752  15.852  42.850  0.00  0.00    -0.000 A 
ATOM     74  CZ  PHE A   9       8.173  16.814  42.011  0.00  0.00    -0.000 A 
ATOM     75  CE1 PHE A   9       7.445  17.974  41.842  0.00  0.00    -0.000 A 
ATOM     76  CD1 PHE A   9       6.278  18.160  42.537  0.00  0.00    -0.004 A 
ENDBRANCH  70  71
ENDBRANCH  58  70
ENDBRANCH  55  58
ENDBRANCH  53  54
ENDBRANCH  50  53
ENDBRANCH  48  49
ENDBRANCH  46  48
ENDBRANCH  43  44
BRANCH  43  77
ATOM     77  CB  ILE A   6       2.463  12.415  34.801  0.00  0.00    +0.027 C 
ATOM     78  CG2 ILE A   6       1.611  13.406  33.982  0.00  0.00    +0.002 C 
BRANCH  77  79
ATOM     79  CG1 ILE A   6       3.612  11.905  33.884  0.00  0.00    +0.002 C 
ATOM     80  CD1 ILE A   6       3.326  10.750  33.132  0.00  0.00    +0.000 C 
ENDBRANCH  77  79
ENDBRANCH  43  77
ENDBRANCH   3  43
TORSDOF 35
REMARK  Name = ../refined-set-2016/3s56/3s56_pocket.pdb
REMARK  225 active torsions:
REMARK  status: ('A' for Active; 'I' for Inactive)
REMARK    1  A    between atoms: _1  and  _3
REMARK    2  A    between atoms: _3  and  _4
REMARK    3  A    between atoms: _3  and  _6
REMARK    4  A    between atoms: _6  and  _7
REMARK    5  A    between atoms: _7  and  _8
REMARK    6  A    between atoms: _8  and  _9
REMARK    7  A    between atoms: _18  and  _20
REMARK    8  A    between atoms: _20  and  _21
REMARK    9  A    between atoms: _20  and  _23
REMARK   10  A    between atoms: _23  and  _24
REMARK   11  A    between atoms: _27  and  _29
REMARK   12  A    between atoms: _29  and  _30
REMARK   13  A    between atoms: _29  and  _32
REMARK   14  A    between atoms: _32  and  _33
REMARK   15  A    between atoms: _36  and  _38
REMARK   16  A    between atoms: _38  and  _39
REMARK   17  A    between atoms: _38  and  _41
REMARK   18  A    between atoms: _41  and  _42
REMARK   19  A    between atoms: _45  and  _47
REMARK   20  A    between atoms: _47  and  _48
REMARK   21  A    between atoms: _47  and  _50
REMARK   22  A    between atoms: _50  and  _51
REMARK   23  A    between atoms: _54  and  _56
REMARK   24  A    between atoms: _56  and  _57
REMARK   25  A    between atoms: _59  and  _61
REMARK   26  A    between atoms: _61  and  _62
REMARK   27  A    between atoms: _65  and  _67
REMARK   28  A    between atoms: _67  and  _68
REMARK   29  A    between atoms: _67  and  _70
REMARK   30  A    between atoms: _70  and  _71
REMARK   31  A    between atoms: _74  and  _76
REMARK   32  A    between atoms: _76  and  _77
REMARK   33  A    between atoms: _76  and  _79
REMARK   34  A    between atoms: _79  and  _80
REMARK   35  A    between atoms: _83  and  _85
REMARK   36  A    between atoms: _85  and  _86
REMARK   37  A    between atoms: _85  and  _88
REMARK   38  A    between atoms: _88  and  _89
REMARK   39  A    between atoms: _92  and  _94
REMARK   40  A    between atoms: _94  and  _95
REMARK   41  A    between atoms: _94  and  _97
REMARK   42  A    between atoms: _97  and  _98
REMARK   43  A    between atoms: _101  and  _103
REMARK   44  A    between atoms: _103  and  _104
REMARK   45  A    between atoms: _103  and  _106
REMARK   46  A    between atoms: _106  and  _107
REMARK   47  A    between atoms: _107  and  _108
REMARK   48  A    between atoms: _108  and  _109
REMARK   49  A    between atoms: _109  and  _110
REMARK   50  A    between atoms: _114  and  _116
REMARK   51  A    between atoms: _116  and  _117
REMARK   52  A    between atoms: _116  and  _119
REMARK   53  A    between atoms: _119  and  _120
REMARK   54  A    between atoms: _120  and  _121
REMARK   55  A    between atoms: _123  and  _125
REMARK   56  A    between atoms: _125  and  _126
REMARK   57  A    between atoms: _125  and  _128
REMARK   58  A    between atoms: _131  and  _133
REMARK   59  A    between atoms: _133  and  _134
REMARK   60  A    between atoms: _136  and  _138
REMARK   61  A    between atoms: _138  and  _139
REMARK   62  A    between atoms: _141  and  _143
REMARK   63  A    between atoms: _143  and  _144
REMARK   64  A    between atoms: _143  and  _146
REMARK   65  A    between atoms: _146  and  _147
REMARK   66  A    between atoms: _150  and  _152
REMARK   67  A    between atoms: _152  and  _153
REMARK   68  A    between atoms: _155  and  _157
REMARK   69  A    between atoms: _157  and  _158
REMARK   70  A    between atoms: _160  and  _162
REMARK   71  A    between atoms: _162  and  _163
REMARK   72  A    between atoms: _162  and  _165
REMARK   73  A    between atoms: _165  and  _166
REMARK   74  A    between atoms: _172  and  _174
REMARK   75  A    between atoms: _174  and  _175
REMARK   76  A    between atoms: _174  and  _177
REMARK   77  A    between atoms: _177  and  _178
REMARK   78  A    between atoms: _181  and  _183
REMARK   79  A    between atoms: _183  and  _184
REMARK   80  A    between atoms: _183  and  _186
REMARK   81  A    between atoms: _189  and  _191
REMARK   82  A    between atoms: _191  and  _192
REMARK   83  A    between atoms: _191  and  _194
REMARK   84  A    between atoms: _194  and  _195
REMARK   85  A    between atoms: _199  and  _200
REMARK   86  A    between atoms: _205  and  _207
REMARK   87  A    between atoms: _207  and  _208
REMARK   88  A    between atoms: _207  and  _210
REMARK   89  A    between atoms: _210  and  _211
REMARK   90  A    between atoms: _215  and  _216
REMARK   91  A    between atoms: _221  and  _223
REMARK   92  A    between atoms: _223  and  _224
REMARK   93  A    between atoms: _223  and  _226
REMARK   94  A    between atoms: _226  and  _227
REMARK   95  A    between atoms: _230  and  _232
REMARK   96  A    between atoms: _232  and  _233
REMARK   97  A    between atoms: _232  and  _235
REMARK   98  A    between atoms: _235  and  _236
REMARK   99  A    between atoms: _241  and  _243
REMARK  100  A    between atoms: _243  and  _244
REMARK  101  A    between atoms: _243  and  _246
REMARK  102  A    between atoms: _246  and  _247
REMARK  103  A    between atoms: _250  and  _252
REMARK  104  A    between atoms: _252  and  _253
REMARK  105  A    between atoms: _252  and  _255
REMARK  106  A    between atoms: _255  and  _256
REMARK  107  A    between atoms: _259  and  _261
REMARK  108  A    between atoms: _261  and  _262
REMARK  109  A    between atoms: _264  and  _266
REMARK  110  A    between atoms: _266  and  _267
REMARK  111  A    between atoms: _266  and  _269
REMARK  112  A    between atoms: _269  and  _270
REMARK  113  A    between atoms: _270  and  _271
REMARK  114  A    between atoms: _271  and  _272
REMARK  115  A    between atoms: _281  and  _283
REMARK  116  A    between atoms: _283  and  _284
REMARK  117  A    between atoms: _283  and  _286
REMARK  118  A    between atoms: _286  and  _287
REMARK  119  A    between atoms: _292  and  _294
REMARK  120  A    between atoms: _294  and  _295
REMARK  121  A    between atoms: _294  and  _297
REMARK  122  A    between atoms: _297  and  _298
REMARK  123  A    between atoms: _298  and  _299
REMARK  124  A    between atoms: _299  and  _300
REMARK  125  A    between atoms: _309  and  _311
REMARK  126  A    between atoms: _311  and  _312
REMARK  127  A    between atoms: _311  and  _314
REMARK  128  A    between atoms: _314  and  _315
REMARK  129  A    between atoms: _318  and  _320
REMARK  130  A    between atoms: _320  and  _321
REMARK  131  A    between atoms: _320  and  _323
REMARK  132  A    between atoms: _323  and  _324
REMARK  133  A    between atoms: _327  and  _329
REMARK  134  A    between atoms: _329  and  _330
REMARK  135  A    between atoms: _329  and  _332
REMARK  136  A    between atoms: _332  and  _333
REMARK  137  A    between atoms: _336  and  _338
REMARK  138  A    between atoms: _338  and  _339
REMARK  139  A    between atoms: _338  and  _341
REMARK  140  A    between atoms: _341  and  _342
REMARK  141  A    between atoms: _345  and  _347
REMARK  142  A    between atoms: _347  and  _348
REMARK  143  A    between atoms: _350  and  _352
REMARK  144  A    between atoms: _352  and  _353
REMARK  145  A    between atoms: _356  and  _358
REMARK  146  A    between atoms: _358  and  _359
REMARK  147  A    between atoms: _358  and  _361
REMARK  148  A    between atoms: _361  and  _362
REMARK  149  A    between atoms: _365  and  _367
REMARK  150  A    between atoms: _367  and  _368
REMARK  151  A    between atoms: _367  and  _370
REMARK  152  A    between atoms: _370  and  _371
REMARK  153  A    between atoms: _374  and  _376
REMARK  154  A    between atoms: _376  and  _377
REMARK  155  A    between atoms: _376  and  _379
REMARK  156  A    between atoms: _379  and  _380
REMARK  157  A    between atoms: _383  and  _385
REMARK  158  A    between atoms: _385  and  _386
REMARK  159  A    between atoms: _385  and  _388
REMARK  160  A    between atoms: _388  and  _389
REMARK  161  A    between atoms: _392  and  _394
REMARK  162  A    between atoms: _394  and  _395
REMARK  163  A    between atoms: _394  and  _397
REMARK  164  A    between atoms: _397  and  _398
REMARK  165  A    between atoms: _398  and  _399
REMARK  166  A    between atoms: _401  and  _403
REMARK  167  A    between atoms: _403  and  _404
REMARK  168  A    between atoms: _403  and  _406
REMARK  169  A    between atoms: _409  and  _411
REMARK  170  A    between atoms: _411  and  _412
REMARK  171  A    between atoms: _414  and  _416
REMARK  172  A    between atoms: _416  and  _417
REMARK  173  A    between atoms: _419  and  _421
REMARK  174  A    between atoms: _421  and  _422
REMARK  175  A    between atoms: _421  and  _424
REMARK  176  A    between atoms: _424  and  _425
REMARK  177  A    between atoms: _428  and  _430
REMARK  178  A    between atoms: _430  and  _431
REMARK  179  A    between atoms: _433  and  _435
REMARK  180  A    between atoms: _435  and  _436
REMARK  181  A    between atoms: _438  and  _440
REMARK  182  A    between atoms: _440  and  _441
REMARK  183  A    between atoms: _440  and  _443
REMARK  184  A    between atoms: _443  and  _444
REMARK  185  A    between atoms: _447  and  _449
REMARK  186  A    between atoms: _449  and  _450
REMARK  187  A    between atoms: _449  and  _452
REMARK  188  A    between atoms: _455  and  _457
REMARK  189  A    between atoms: _457  and  _458
REMARK  190  A    between atoms: _457  and  _460
REMARK  191  A    between atoms: _460  and  _461
REMARK  192  A    between atoms: _465  and  _466
REMARK  193  A    between atoms: _471  and  _473
REMARK  194  A    between atoms: _473  and  _474
REMARK  195  A    between atoms: _473  and  _476
REMARK  196  A    between atoms: _476  and  _477
REMARK  197  A    between atoms: _481  and  _482
REMARK  198  A    between atoms: _487  and  _489
REMARK  199  A    between atoms: _489  and  _490
REMARK  200  A    between atoms: _489  and  _492
REMARK  201  A    between atoms: _492  and  _493
REMARK  202  A    between atoms: _496  and  _498
REMARK  203  A    between atoms: _498  and  _499
REMARK  204  A    between atoms: _498  and  _501
REMARK  205  A    between atoms: _501  and  _502
REMARK  206  A    between atoms: _507  and  _509
REMARK  207  A    between atoms: _509  and  _510
REMARK  208  A    between atoms: _509  and  _512
REMARK  209  A    between atoms: _512  and  _513
REMARK  210  A    between atoms: _516  and  _518
REMARK  211  A    between atoms: _518  and  _519
REMARK  212  A    between atoms: _518  and  _521
REMARK  213  A    between atoms: _521  and  _522
REMARK  214  A    between atoms: _525  and  _527
REMARK  215  A    between atoms: _527  and  _528
REMARK  216  A    between atoms: _530  and  _532
REMARK  217  A    between atoms: _532  and  _533
REMARK  218  A    between atoms: _532  and  _535
REMARK  219  A    between atoms: _535  and  _536
REMARK  220  A    between atoms: _536  and  _537
REMARK  221  A    between atoms: _537  and  _538
REMARK  222  A    between atoms: _547  and  _549
REMARK  223  A    between atoms: _549  and  _550
REMARK  224  A    between atoms: _549  and  _552
REMARK  225  A    between atoms: _552  and  _553
REMARK                            x       y       z     vdW  Elec       q    Type
REMARK                         _______ _______ _______ _____ _____    ______ ____
ROOT
ATOM      1  CA  VAL A   1      -0.350  13.753  51.512  0.00  0.00    +0.101 C 
ENDROOT
BRANCH   1   2
ATOM      2  CB  VAL A   1       0.038  12.372  50.814  0.00  0.00    +0.018 C 
ATOM      3  CG2 VAL A   1       1.590  12.072  50.880  0.00  0.00    +0.002 C 
ATOM      4  CG1 VAL A   1      -0.385  12.435  49.331  0.00  0.00    +0.002 C 
ENDBRANCH   1   2
BRANCH   1   5
ATOM      5  N   VAL A   1       0.323  14.865  50.942  0.00  0.00    -0.244 NA
ATOM      6  H   VAL A   1       1.338  14.996  51.125  0.00  0.00    +0.141 HD
ENDBRANCH   1   5
BRANCH   1   7
ATOM      7  C   VAL A   1      -0.010  13.731  53.024  0.00  0.00    +0.199 C 
ATOM      8  O   VAL A   1       0.932  14.459  53.519  0.00  0.00    -0.219 OA
ENDBRANCH   1   7
TORSDOF 3
REMARK  Name = ../refined-set-2016/3s56/3s56_pocket.pdb
REMARK  225 active torsions:
REMARK  status: ('A' for Active; 'I' for Inactive)
REMARK    1  A    between atoms: _1  and  _3
REMARK    2  A    between atoms: _3  and  _4
REMARK    3  A    between atoms: _3  and  _6
REMARK    4  A    between atoms: _6  and  _7
REMARK    5  A    between atoms: _7  and  _8
REMARK    6  A    between atoms: _8  and  _9
REMARK    7  A    between atoms: _18  and  _20
REMARK    8  A    between atoms: _20  and  _21
REMARK    9  A    between atoms: _20  and  _23
REMARK   10  A    between atoms: _23  and  _24
REMARK   11  A    between atoms: _27  and  _29
REMARK   12  A    between atoms: _29  and  _30
REMARK   13  A    between atoms: _29  and  _32
REMARK   14  A    between atoms: _32  and  _33
REMARK   15  A    between atoms: _36  and  _38
REMARK   16  A    between atoms: _38  and  _39
REMARK   17  A    between atoms: _38  and  _41
REMARK   18  A    between atoms: _41  and  _42
REMARK   19  A    between atoms: _45  and  _47
REMARK   20  A    between atoms: _47  and  _48
REMARK   21  A    between atoms: _47  and  _50
REMARK   22  A    between atoms: _50  and  _51
REMARK   23  A    between atoms: _54  and  _56
REMARK   24  A    between atoms: _56  and  _57
REMARK   25  A    between atoms: _59  and  _61
REMARK   26  A    between atoms: _61  and  _62
REMARK   27  A    between atoms: _65  and  _67
REMARK   28  A    between atoms: _67  and  _68
REMARK   29  A    between atoms: _67  and  _70
REMARK   30  A    between atoms: _70  and  _71
REMARK   31  A    between atoms: _74  and  _76
REMARK   32  A    between atoms: _76  and  _77
REMARK   33  A    between atoms: _76  and  _79
REMARK   34  A    between atoms: _79  and  _80
REMARK   35  A    between atoms: _83  and  _85
REMARK   36  A    between atoms: _85  and  _86
REMARK   37  A    between atoms: _85  and  _88
REMARK   38  A    between atoms: _88  and  _89
REMARK   39  A    between atoms: _92  and  _94
REMARK   40  A    between atoms: _94  and  _95
REMARK   41  A    between atoms: _94  and  _97
REMARK   42  A    between atoms: _97  and  _98
REMARK   43  A    between atoms: _101  and  _103
REMARK   44  A    between atoms: _103  and  _104
REMARK   45  A    between atoms: _103  and  _106
REMARK   46  A    between atoms: _106  and  _107
REMARK   47  A    between atoms: _107  and  _108
REMARK   48  A    between atoms: _108  and  _109
REMARK   49  A    between atoms: _109  and  _110
REMARK   50  A    between atoms: _114  and  _116
REMARK   51  A    between atoms: _116  and  _117
REMARK   52  A    between atoms: _116  and  _119
REMARK   53  A    between atoms: _119  and  _120
REMARK   54  A    between atoms: _120  and  _121
REMARK   55  A    between atoms: _123  and  _125
REMARK   56  A    between atoms: _125  and  _126
REMARK   57  A    between atoms: _125  and  _128
REMARK   58  A    between atoms: _131  and  _133
REMARK   59  A    between atoms: _133  and  _134
REMARK   60  A    between atoms: _136  and  _138
REMARK   61  A    between atoms: _138  and  _139
REMARK   62  A    between atoms: _141  and  _143
REMARK   63  A    between atoms: _143  and  _144
REMARK   64  A    between atoms: _143  and  _146
REMARK   65  A    between atoms: _146  and  _147
REMARK   66  A    between atoms: _150  and  _152
REMARK   67  A    between atoms: _152  and  _153
REMARK   68  A    between atoms: _155  and  _157
REMARK   69  A    between atoms: _157  and  _158
REMARK   70  A    between atoms: _160  and  _162
REMARK   71  A    between atoms: _162  and  _163
REMARK   72  A    between atoms: _162  and  _165
REMARK   73  A    between atoms: _165  and  _166
REMARK   74  A    between atoms: _172  and  _174
REMARK   75  A    between atoms: _174  and  _175
REMARK   76  A    between atoms: _174  and  _177
REMARK   77  A    between atoms: _177  and  _178
REMARK   78  A    between atoms: _181  and  _183
REMARK   79  A    between atoms: _183  and  _184
REMARK   80  A    between atoms: _183  and  _186
REMARK   81  A    between atoms: _189  and  _191
REMARK   82  A    between atoms: _191  and  _192
REMARK   83  A    between atoms: _191  and  _194
REMARK   84  A    between atoms: _194  and  _195
REMARK   85  A    between atoms: _199  and  _200
REMARK   86  A    between atoms: _205  and  _207
REMARK   87  A    between atoms: _207  and  _208
REMARK   88  A    between atoms: _207  and  _210
REMARK   89  A    between atoms: _210  and  _211
REMARK   90  A    between atoms: _215  and  _216
REMARK   91  A    between atoms: _221  and  _223
REMARK   92  A    between atoms: _223  and  _224
REMARK   93  A    between atoms: _223  and  _226
REMARK   94  A    between atoms: _226  and  _227
REMARK   95  A    between atoms: _230  and  _232
REMARK   96  A    between atoms: _232  and  _233
REMARK   97  A    between atoms: _232  and  _235
REMARK   98  A    between atoms: _235  and  _236
REMARK   99  A    between atoms: _241  and  _243
REMARK  100  A    between atoms: _243  and  _244
REMARK  101  A    between atoms: _243  and  _246
REMARK  102  A    between atoms: _246  and  _247
REMARK  103  A    between atoms: _250  and  _252
REMARK  104  A    between atoms: _252  and  _253
REMARK  105  A    between atoms: _252  and  _255
REMARK  106  A    between atoms: _255  and  _256
REMARK  107  A    between atoms: _259  and  _261
REMARK  108  A    between atoms: _261  and  _262
REMARK  109  A    between atoms: _264  and  _266
REMARK  110  A    between atoms: _266  and  _267
REMARK  111  A    between atoms: _266  and  _269
REMARK  112  A    between atoms: _269  and  _270
REMARK  113  A    between atoms: _270  and  _271
REMARK  114  A    between atoms: _271  and  _272
REMARK  115  A    between atoms: _281  and  _283
REMARK  116  A    between atoms: _283  and  _284
REMARK  117  A    between atoms: _283  and  _286
REMARK  118  A    between atoms: _286  and  _287
REMARK  119  A    between atoms: _292  and  _294
REMARK  120  A    between atoms: _294  and  _295
REMARK  121  A    between atoms: _294  and  _297
REMARK  122  A    between atoms: _297  and  _298
REMARK  123  A    between atoms: _298  and  _299
REMARK  124  A    between atoms: _299  and  _300
REMARK  125  A    between atoms: _309  and  _311
REMARK  126  A    between atoms: _311  and  _312
REMARK  127  A    between atoms: _311  and  _314
REMARK  128  A    between atoms: _314  and  _315
REMARK  129  A    between atoms: _318  and  _320
REMARK  130  A    between atoms: _320  and  _321
REMARK  131  A    between atoms: _320  and  _323
REMARK  132  A    between atoms: _323  and  _324
REMARK  133  A    between atoms: _327  and  _329
REMARK  134  A    between atoms: _329  and  _330
REMARK  135  A    between atoms: _329  and  _332
REMARK  136  A    between atoms: _332  and  _333
REMARK  137  A    between atoms: _336  and  _338
REMARK  138  A    between atoms: _338  and  _339
REMARK  139  A    between atoms: _338  and  _341
REMARK  140  A    between atoms: _341  and  _342
REMARK  141  A    between atoms: _345  and  _347
REMARK  142  A    between atoms: _347  and  _348
REMARK  143  A    between atoms: _350  and  _352
REMARK  144  A    between atoms: _352  and  _353
REMARK  145  A    between atoms: _356  and  _358
REMARK  146  A    between atoms: _358  and  _359
REMARK  147  A    between atoms: _358  and  _361
REMARK  148  A    between atoms: _361  and  _362
REMARK  149  A    between atoms: _365  and  _367
REMARK  150  A    between atoms: _367  and  _368
REMARK  151  A    between atoms: _367  and  _370
REMARK  152  A    between atoms: _370  and  _371
REMARK  153  A    between atoms: _374  and  _376
REMARK  154  A    between atoms: _376  and  _377
REMARK  155  A    between atoms: _376  and  _379
REMARK  156  A    between atoms: _379  and  _380
REMARK  157  A    between atoms: _383  and  _385
REMARK  158  A    between atoms: _385  and  _386
REMARK  159  A    between atoms: _385  and  _388
REMARK  160  A    between atoms: _388  and  _389
REMARK  161  A    between atoms: _392  and  _394
REMARK  162  A    between atoms: _394  and  _395
REMARK  163  A    between atoms: _394  and  _397
REMARK  164  A    between atoms: _397  and  _398
REMARK  165  A    between atoms: _398  and  _399
REMARK  166  A    between atoms: _401  and  _403
REMARK  167  A    between atoms: _403  and  _404
REMARK  168  A    between atoms: _403  and  _406
REMARK  169  A    between atoms: _409  and  _411
REMARK  170  A    between atoms: _411  and  _412
REMARK  171  A    between atoms: _414  and  _416
REMARK  172  A    between atoms: _416  and  _417
REMARK  173  A    between atoms: _419  and  _421
REMARK  174  A    between atoms: _421  and  _422
REMARK  175  A    between atoms: _421  and  _424
REMARK  176  A    between atoms: _424  and  _425
REMARK  177  A    between atoms: _428  and  _430
REMARK  178  A    between atoms: _430  and  _431
REMARK  179  A    between atoms: _433  and  _435
REMARK  180  A    between atoms: _435  and  _436
REMARK  181  A    between atoms: _438  and  _440
REMARK  182  A    between atoms: _440  and  _441
REMARK  183  A    between atoms: _440  and  _443
REMARK  184  A    between atoms: _443  and  _444
REMARK  185  A    between atoms: _447  and  _449
REMARK  186  A    between atoms: _449  and  _450
REMARK  187  A    between atoms: _449  and  _452
REMARK  188  A    between atoms: _455  and  _457
REMARK  189  A    between atoms: _457  and  _458
REMARK  190  A    between atoms: _457  and  _460
REMARK  191  A    between atoms: _460  and  _461
REMARK  192  A    between atoms: _465  and  _466
REMARK  193  A    between atoms: _471  and  _473
REMARK  194  A    between atoms: _473  and  _474
REMARK  195  A    between atoms: _473  and  _476
REMARK  196  A    between atoms: _476  and  _477
REMARK  197  A    between atoms: _481  and  _482
REMARK  198  A    between atoms: _487  and  _489
REMARK  199  A    between atoms: _489  and  _490
REMARK  200  A    between atoms: _489  and  _492
REMARK  201  A    between atoms: _492  and  _493
REMARK  202  A    between atoms: _496  and  _498
REMARK  203  A    between atoms: _498  and  _499
REMARK  204  A    between atoms: _498  and  _501
REMARK  205  A    between atoms: _501  and  _502
REMARK  206  A    between atoms: _507  and  _509
REMARK  207  A    between atoms: _509  and  _510
REMARK  208  A    between atoms: _509  and  _512
REMARK  209  A    between atoms: _512  and  _513
REMARK  210  A    between atoms: _516  and  _518
REMARK  211  A    between atoms: _518  and  _519
REMARK  212  A    between atoms: _518  and  _521
REMARK  213  A    between atoms: _521  and  _522
REMARK  214  A    between atoms: _525  and  _527
REMARK  215  A    between atoms: _527  and  _528
REMARK  216  A    between atoms: _530  and  _532
REMARK  217  A    between atoms: _532  and  _533
REMARK  218  A    between atoms: _532  and  _535
REMARK  219  A    between atoms: _535  and  _536
REMARK  220  A    between atoms: _536  and  _537
REMARK  221  A    between atoms: _537  and  _538
REMARK  222  A    between atoms: _547  and  _549
REMARK  223  A    between atoms: _549  and  _550
REMARK  224  A    between atoms: _549  and  _552
REMARK  225  A    between atoms: _552  and  _553
REMARK                            x       y       z     vdW  Elec       q    Type
REMARK                         _______ _______ _______ _____ _____    ______ ____
ROOT
ATOM      1  CA  LEU A   1      -0.671   7.876  51.793  0.00  0.00    +0.133 C 
ENDROOT
BRANCH   1   2
ATOM      2  N   LEU A   1      -0.665   6.376  51.844  0.00  0.00    -0.239 NA
ATOM      3  H   LEU A   1      -0.571   5.817  50.972  0.00  0.00    +0.142 HD
ENDBRANCH   1   2
BRANCH   1   4
ATOM      4  C   LEU A   1      -2.068   8.378  51.519  0.00  0.00    +0.224 C 
ATOM      5  O   LEU A   1      -2.768   7.833  50.633  0.00  0.00    -0.287 OA
ENDBRANCH   1   4
BRANCH   1   6
ATOM      6  CB  LEU A   1       0.324   8.391  50.715  0.00  0.00    +0.025 C 
BRANCH   6   7
ATOM      7  CG  LEU A   1       1.695   7.853  50.701  0.00  0.00    +0.002 C 
ATOM      8  CD2 LEU A   1       2.345   7.942  52.176  0.00  0.00    +0.000 C 
ATOM      9  CD1 LEU A   1       2.688   8.478  49.640  0.00  0.00    +0.000 C 
ENDBRANCH   6   7
ENDBRANCH   1   6
TORSDOF 4
REMARK  Name = ../refined-set-2016/3s56/3s56_pocket.pdb
REMARK  225 active torsions:
REMARK  status: ('A' for Active; 'I' for Inactive)
REMARK    1  A    between atoms: _1  and  _3
REMARK    2  A    between atoms: _3  and  _4
REMARK    3  A    between atoms: _3  and  _6
REMARK    4  A    between atoms: _6  and  _7
REMARK    5  A    between atoms: _7  and  _8
REMARK    6  A    between atoms: _8  and  _9
REMARK    7  A    between atoms: _18  and  _20
REMARK    8  A    between atoms: _20  and  _21
REMARK    9  A    between atoms: _20  and  _23
REMARK   10  A    between atoms: _23  and  _24
REMARK   11  A    between atoms: _27  and  _29
REMARK   12  A    between atoms: _29  and  _30
REMARK   13  A    between atoms: _29  and  _32
REMARK   14  A    between atoms: _32  and  _33
REMARK   15  A    between atoms: _36  and  _38
REMARK   16  A    between atoms: _38  and  _39
REMARK   17  A    between atoms: _38  and  _41
REMARK   18  A    between atoms: _41  and  _42
REMARK   19  A    between atoms: _45  and  _47
REMARK   20  A    between atoms: _47  and  _48
REMARK   21  A    between atoms: _47  and  _50
REMARK   22  A    between atoms: _50  and  _51
REMARK   23  A    between atoms: _54  and  _56
REMARK   24  A    between atoms: _56  and  _57
REMARK   25  A    between atoms: _59  and  _61
REMARK   26  A    between atoms: _61  and  _62
REMARK   27  A    between atoms: _65  and  _67
REMARK   28  A    between atoms: _67  and  _68
REMARK   29  A    between atoms: _67  and  _70
REMARK   30  A    between atoms: _70  and  _71
REMARK   31  A    between atoms: _74  and  _76
REMARK   32  A    between atoms: _76  and  _77
REMARK   33  A    between atoms: _76  and  _79
REMARK   34  A    between atoms: _79  and  _80
REMARK   35  A    between atoms: _83  and  _85
REMARK   36  A    between atoms: _85  and  _86
REMARK   37  A    between atoms: _85  and  _88
REMARK   38  A    between atoms: _88  and  _89
REMARK   39  A    between atoms: _92  and  _94
REMARK   40  A    between atoms: _94  and  _95
REMARK   41  A    between atoms: _94  and  _97
REMARK   42  A    between atoms: _97  and  _98
REMARK   43  A    between atoms: _101  and  _103
REMARK   44  A    between atoms: _103  and  _104
REMARK   45  A    between atoms: _103  and  _106
REMARK   46  A    between atoms: _106  and  _107
REMARK   47  A    between atoms: _107  and  _108
REMARK   48  A    between atoms: _108  and  _109
REMARK   49  A    between atoms: _109  and  _110
REMARK   50  A    between atoms: _114  and  _116
REMARK   51  A    between atoms: _116  and  _117
REMARK   52  A    between atoms: _116  and  _119
REMARK   53  A    between atoms: _119  and  _120
REMARK   54  A    between atoms: _120  and  _121
REMARK   55  A    between atoms: _123  and  _125
REMARK   56  A    between atoms: _125  and  _126
REMARK   57  A    between atoms: _125  and  _128
REMARK   58  A    between atoms: _131  and  _133
REMARK   59  A    between atoms: _133  and  _134
REMARK   60  A    between atoms: _136  and  _138
REMARK   61  A    between atoms: _138  and  _139
REMARK   62  A    between atoms: _141  and  _143
REMARK   63  A    between atoms: _143  and  _144
REMARK   64  A    between atoms: _143  and  _146
REMARK   65  A    between atoms: _146  and  _147
REMARK   66  A    between atoms: _150  and  _152
REMARK   67  A    between atoms: _152  and  _153
REMARK   68  A    between atoms: _155  and  _157
REMARK   69  A    between atoms: _157  and  _158
REMARK   70  A    between atoms: _160  and  _162
REMARK   71  A    between atoms: _162  and  _163
REMARK   72  A    between atoms: _162  and  _165
REMARK   73  A    between atoms: _165  and  _166
REMARK   74  A    between atoms: _172  and  _174
REMARK   75  A    between atoms: _174  and  _175
REMARK   76  A    between atoms: _174  and  _177
REMARK   77  A    between atoms: _177  and  _178
REMARK   78  A    between atoms: _181  and  _183
REMARK   79  A    between atoms: _183  and  _184
REMARK   80  A    between atoms: _183  and  _186
REMARK   81  A    between atoms: _189  and  _191
REMARK   82  A    between atoms: _191  and  _192
REMARK   83  A    between atoms: _191  and  _194
REMARK   84  A    between atoms: _194  and  _195
REMARK   85  A    between atoms: _199  and  _200
REMARK   86  A    between atoms: _205  and  _207
REMARK   87  A    between atoms: _207  and  _208
REMARK   88  A    between atoms: _207  and  _210
REMARK   89  A    between atoms: _210  and  _211
REMARK   90  A    between atoms: _215  and  _216
REMARK   91  A    between atoms: _221  and  _223
REMARK   92  A    between atoms: _223  and  _224
REMARK   93  A    between atoms: _223  and  _226
REMARK   94  A    between atoms: _226  and  _227
REMARK   95  A    between atoms: _230  and  _232
REMARK   96  A    between atoms: _232  and  _233
REMARK   97  A    between atoms: _232  and  _235
REMARK   98  A    between atoms: _235  and  _236
REMARK   99  A    between atoms: _241  and  _243
REMARK  100  A    between atoms: _243  and  _244
REMARK  101  A    between atoms: _243  and  _246
REMARK  102  A    between atoms: _246  and  _247
REMARK  103  A    between atoms: _250  and  _252
REMARK  104  A    between atoms: _252  and  _253
REMARK  105  A    between atoms: _252  and  _255
REMARK  106  A    between atoms: _255  and  _256
REMARK  107  A    between atoms: _259  and  _261
REMARK  108  A    between atoms: _261  and  _262
REMARK  109  A    between atoms: _264  and  _266
REMARK  110  A    between atoms: _266  and  _267
REMARK  111  A    between atoms: _266  and  _269
REMARK  112  A    between atoms: _269  and  _270
REMARK  113  A    between atoms: _270  and  _271
REMARK  114  A    between atoms: _271  and  _272
REMARK  115  A    between atoms: _281  and  _283
REMARK  116  A    between atoms: _283  and  _284
REMARK  117  A    between atoms: _283  and  _286
REMARK  118  A    between atoms: _286  and  _287
REMARK  119  A    between atoms: _292  and  _294
REMARK  120  A    between atoms: _294  and  _295
REMARK  121  A    between atoms: _294  and  _297
REMARK  122  A    between atoms: _297  and  _298
REMARK  123  A    between atoms: _298  and  _299
REMARK  124  A    between atoms: _299  and  _300
REMARK  125  A    between atoms: _309  and  _311
REMARK  126  A    between atoms: _311  and  _312
REMARK  127  A    between atoms: _311  and  _314
REMARK  128  A    between atoms: _314  and  _315
REMARK  129  A    between atoms: _318  and  _320
REMARK  130  A    between atoms: _320  and  _321
REMARK  131  A    between atoms: _320  and  _323
REMARK  132  A    between atoms: _323  and  _324
REMARK  133  A    between atoms: _327  and  _329
REMARK  134  A    between atoms: _329  and  _330
REMARK  135  A    between atoms: _329  and  _332
REMARK  136  A    between atoms: _332  and  _333
REMARK  137  A    between atoms: _336  and  _338
REMARK  138  A    between atoms: _338  and  _339
REMARK  139  A    between atoms: _338  and  _341
REMARK  140  A    between atoms: _341  and  _342
REMARK  141  A    between atoms: _345  and  _347
REMARK  142  A    between atoms: _347  and  _348
REMARK  143  A    between atoms: _350  and  _352
REMARK  144  A    between atoms: _352  and  _353
REMARK  145  A    between atoms: _356  and  _358
REMARK  146  A    between atoms: _358  and  _359
REMARK  147  A    between atoms: _358  and  _361
REMARK  148  A    between atoms: _361  and  _362
REMARK  149  A    between atoms: _365  and  _367
REMARK  150  A    between atoms: _367  and  _368
REMARK  151  A    between atoms: _367  and  _370
REMARK  152  A    between atoms: _370  and  _371
REMARK  153  A    between atoms: _374  and  _376
REMARK  154  A    between atoms: _376  and  _377
REMARK  155  A    between atoms: _376  and  _379
REMARK  156  A    between atoms: _379  and  _380
REMARK  157  A    between atoms: _383  and  _385
REMARK  158  A    between atoms: _385  and  _386
REMARK  159  A    between atoms: _385  and  _388
REMARK  160  A    between atoms: _388  and  _389
REMARK  161  A    between atoms: _392  and  _394
REMARK  162  A    between atoms: _394  and  _395
REMARK  163  A    between atoms: _394  and  _397
REMARK  164  A    between atoms: _397  and  _398
REMARK  165  A    between atoms: _398  and  _399
REMARK  166  A    between atoms: _401  and  _403
REMARK  167  A    between atoms: _403  and  _404
REMARK  168  A    between atoms: _403  and  _406
REMARK  169  A    between atoms: _409  and  _411
REMARK  170  A    between atoms: _411  and  _412
REMARK  171  A    between atoms: _414  and  _416
REMARK  172  A    between atoms: _416  and  _417
REMARK  173  A    between atoms: _419  and  _421
REMARK  174  A    between atoms: _421  and  _422
REMARK  175  A    between atoms: _421  and  _424
REMARK  176  A    between atoms: _424  and  _425
REMARK  177  A    between atoms: _428  and  _430
REMARK  178  A    between atoms: _430  and  _431
REMARK  179  A    between atoms: _433  and  _435
REMARK  180  A    between atoms: _435  and  _436
REMARK  181  A    between atoms: _438  and  _440
REMARK  182  A    between atoms: _440  and  _441
REMARK  183  A    between atoms: _440  and  _443
REMARK  184  A    between atoms: _443  and  _444
REMARK  185  A    between atoms: _447  and  _449
REMARK  186  A    between atoms: _449  and  _450
REMARK  187  A    between atoms: _449  and  _452
REMARK  188  A    between atoms: _455  and  _457
REMARK  189  A    between atoms: _457  and  _458
REMARK  190  A    between atoms: _457  and  _460
REMARK  191  A    between atoms: _460  and  _461
REMARK  192  A    between atoms: _465  and  _466
REMARK  193  A    between atoms: _471  and  _473
REMARK  194  A    between atoms: _473  and  _474
REMARK  195  A    between atoms: _473  and  _476
REMARK  196  A    between atoms: _476  and  _477
REMARK  197  A    between atoms: _481  and  _482
REMARK  198  A    between atoms: _487  and  _489
REMARK  199  A    between atoms: _489  and  _490
REMARK  200  A    between atoms: _489  and  _492
REMARK  201  A    between atoms: _492  and  _493
REMARK  202  A    between atoms: _496  and  _498
REMARK  203  A    between atoms: _498  and  _499
REMARK  204  A    between atoms: _498  and  _501
REMARK  205  A    between atoms: _501  and  _502
REMARK  206  A    between atoms: _507  and  _509
REMARK  207  A    between atoms: _509  and  _510
REMARK  208  A    between atoms: _509  and  _512
REMARK  209  A    between atoms: _512  and  _513
REMARK  210  A    between atoms: _516  and  _518
REMARK  211  A    between atoms: _518  and  _519
REMARK  212  A    between atoms: _518  and  _521
REMARK  213  A    between atoms: _521  and  _522
REMARK  214  A    between atoms: _525  and  _527
REMARK  215  A    between atoms: _527  and  _528
REMARK  216  A    between atoms: _530  and  _532
REMARK  217  A    between atoms: _532  and  _533
REMARK  218  A    between atoms: _532  and  _535
REMARK  219  A    between atoms: _535  and  _536
REMARK  220  A    between atoms: _536  and  _537
REMARK  221  A    between atoms: _537  and  _538
REMARK  222  A    between atoms: _547  and  _549
REMARK  223  A    between atoms: _549  and  _550
REMARK  224  A    between atoms: _549  and  _552
REMARK  225  A    between atoms: _552  and  _553
REMARK                            x       y       z     vdW  Elec       q    Type
REMARK                         _______ _______ _______ _____ _____    ______ ____
ROOT
ATOM      1  CA  ILE A   6      -3.910   3.449  43.734  0.00  0.00    +0.149 C 
ENDROOT
BRANCH   1   2
ATOM      2  C   ILE A   6      -3.214   2.564  44.739  0.00  0.00    +0.241 C 
ATOM      3  O   ILE A   6      -2.792   3.040  45.871  0.00  0.00    -0.273 OA
ATOM      4  N   ILE A   7      -3.028   1.312  44.319  0.00  0.00    -0.297 N 
ATOM      5  H   ILE A   7      -3.385   1.042  43.380  0.00  0.00    +0.150 HD
BRANCH   4   6
ATOM      6  CA  ILE A   7      -2.355   0.323  45.111  0.00  0.00    +0.149 C 
BRANCH   6   7
ATOM      7  C   ILE A   7      -0.963   0.203  44.448  0.00  0.00    +0.241 C 
ATOM      8  N   GLY A   8       0.043   0.783  45.106  0.00  0.00    -0.295 N 
ATOM      9  H   GLY A   8      -0.147   1.243  46.019  0.00  0.00    +0.150 HD
ATOM     10  O   ILE A   7      -0.839  -0.341  43.333  0.00  0.00    -0.273 OA
BRANCH   8  11
ATOM     11  CA  GLY A   8       1.420   0.787  44.569  0.00  0.00    +0.176 C 
BRANCH  11  12
ATOM     12  C   GLY A   8       2.224  -0.436  44.934  0.00  0.00    +0.243 C 
ATOM     13  O   GLY A   8       1.746  -1.377  45.614  0.00  0.00    -0.273 OA
ATOM     14  N   ARG A   9       3.508  -0.437  44.556  0.00  0.00    -0.297 N 
ATOM     15  H   ARG A   9       3.947   0.410  44.141  0.00  0.00    +0.150 HD
BRANCH  14  16
ATOM     16  CA  ARG A   9       4.250  -1.631  44.740  0.00  0.00    +0.149 C 
BRANCH  16  17
ATOM     17  C   ARG A   9       4.439  -2.034  46.204  0.00  0.00    +0.241 C 
ATOM     18  N   ASN A  10       4.412  -1.081  47.125  0.00  0.00    -0.298 N 
ATOM     19  H   ASN A  10       4.168  -0.101  46.878  0.00  0.00    +0.150 HD
ATOM     20  O   ARG A   9       4.689  -3.195  46.460  0.00  0.00    -0.273 OA
BRANCH  18  21
ATOM     21  CA  ASN A  10       4.742  -1.461  48.520  0.00  0.00    +0.146 C 
BRANCH  21  22
ATOM     22  C   ASN A  10       3.662  -2.472  49.045  0.00  0.00    +0.227 C 
ATOM     23  O   ASN A  10       3.987  -3.340  49.871  0.00  0.00    -0.286 OA
ENDBRANCH  21  22
BRANCH  21  24
ATOM     24  CB  ASN A  10       4.777  -0.207  49.382  0.00  0.00    +0.112 C 
BRANCH  24  25
ATOM     25  CG  ASN A  10       3.389   0.514  49.501  0.00  0.00    +0.222 C 
ATOM     26  ND2 ASN A  10       3.015   0.771  50.728  0.00  0.00    -0.329 N 
ATOM     27 HD21 ASN A  10       3.615   0.480  51.526  0.00  0.00    +0.145 HD
ATOM     28 HD22 ASN A  10       2.118   1.267  50.905  0.00  0.00    +0.145 HD
ATOM     29  OD1 ASN A  10       2.681   0.856  48.511  0.00  0.00    -0.275 OA
ENDBRANCH  24  25
ENDBRANCH  21  24
ENDBRANCH  18  21
ENDBRANCH  16  17
BRANCH  16  30
ATOM     30  CB  ARG A   9       5.635  -1.519  44.074  0.00  0.00    +0.033 C 
BRANCH  30  31
ATOM     31  CG  ARG A   9       5.517  -1.541  42.475  0.00  0.00    +0.045 C 
BRANCH  31  32
ATOM     32  CD  ARG A   9       7.004  -1.465  41.846  0.00  0.00    +0.174 C 
BRANCH  32  33
ATOM     33  NE  ARG A   9       7.657  -0.183  42.232  0.00  0.00    -0.265 N 
ATOM     34  CZ  ARG A   9       8.616  -0.128  43.168  0.00  0.00    +0.342 C 
ATOM     35  NH2 ARG A   9       8.989  -1.275  43.753  0.00  0.00    -0.292 N 
ATOM     36 HH21 ARG A   9       9.730  -1.270  44.483  0.00  0.00    +0.255 HD
ATOM     37 HH22 ARG A   9       8.538  -2.170  43.477  0.00  0.00    +0.255 HD
ATOM     38  NH1 ARG A   9       9.178   1.037  43.518  0.00  0.00    -0.292 N 
ATOM     39 HH11 ARG A   9       9.920   1.058  44.246  0.00  0.00    +0.255 HD
ATOM     40 HH12 ARG A   9       8.872   1.920  43.061  0.00  0.00    +0.255 HD
ATOM     41  HE  ARG A   9       7.360   0.696  41.762  0.00  0.00    +0.259 HD
ENDBRANCH  32  33
ENDBRANCH  31  32
ENDBRANCH  30  31
ENDBRANCH  16  30
ENDBRANCH  14  16
ENDBRANCH  11  12
ENDBRANCH   8  11
ENDBRANCH   6   7
BRANCH   6  42
ATOM     42  CB  ILE A   7      -3.003  -1.065  45.100  0.00  0.00    +0.027 C 
ATOM     43  CG2 ILE A   7      -2.146  -1.974  46.065  0.00  0.00    +0.002 C 
BRANCH  42  44
ATOM     44  CG1 ILE A   7      -4.498  -1.034  45.533  0.00  0.00    +0.002 C 
ATOM     45  CD1 ILE A   7      -4.756  -0.302  46.943  0.00  0.00    +0.000 C 
ENDBRANCH  42  44
ENDBRANCH   6  42
ENDBRANCH   4   6
ENDBRANCH   1   2
BRANCH   1  47
ATOM     46  C   ASN A   5      -6.102   4.461  43.827  0.00  0.00    +0.241 C 
ATOM     47  N   ILE A   6      -4.873   4.387  44.331  0.00  0.00    -0.297 N 
ATOM     48  H   ILE A   6      -4.597   4.984  45.136  0.00  0.00    +0.150 HD
ATOM     49  O   ASN A   5      -6.490   3.715  42.895  0.00  0.00    -0.273 OA
BRANCH  46  50
ATOM     50  CA  ASN A   5      -7.083   5.526  44.418  0.00  0.00    +0.158 C 
BRANCH  50  52
ATOM     51  C   ILE A   4      -7.123   7.103  42.625  0.00  0.00    +0.241 C 
ATOM     52  N   ASN A   5      -7.792   6.216  43.358  0.00  0.00    -0.297 N 
ATOM     53  H   ASN A   5      -8.797   6.023  43.175  0.00  0.00    +0.150 HD
ATOM     54  O   ILE A   4      -5.972   7.435  42.877  0.00  0.00    -0.273 OA
BRANCH  51  55
ATOM     55  CA  ILE A   4      -7.861   7.787  41.422  0.00  0.00    +0.149 C 
BRANCH  55  57
ATOM     56  C   PRO A   3      -8.497  10.122  41.249  0.00  0.00    +0.245 C 
ATOM     57  N   ILE A   4      -7.540   9.207  41.411  0.00  0.00    -0.297 N 
ATOM     58  H   ILE A   4      -6.553   9.512  41.531  0.00  0.00    +0.150 HD
ATOM     59  O   PRO A   3      -9.674   9.775  41.056  0.00  0.00    -0.273 OA
BRANCH  56  66
ATOM     60  C   THR A   2      -6.903  11.541  43.466  0.00  0.00    +0.247 C 
ATOM     61  O   THR A   2      -7.936  11.296  44.018  0.00  0.00    -0.273 OA
ATOM     62  N   PRO A   3      -6.861  11.787  42.140  0.00  0.00    -0.264 N 
ATOM     63  CD  PRO A   3      -5.750  12.485  41.454  0.00  0.00    +0.120 C 
ATOM     64  CG  PRO A   3      -6.241  12.480  39.998  0.00  0.00    -0.007 C 
ATOM     65  CB  PRO A   3      -7.564  12.077  39.891  0.00  0.00    -0.000 C 
ATOM     66  CA  PRO A   3      -8.039  11.577  41.291  0.00  0.00    +0.175 C 
BRANCH  60  67
ATOM     67  CA  THR A   2      -5.614  11.661  44.227  0.00  0.00    +0.176 C 
BRANCH  67  69
ATOM     68  C   PRO A   1      -5.723  13.716  45.547  0.00  0.00    +0.239 C 
ATOM     69  N   THR A   2      -5.769  12.407  45.531  0.00  0.00    -0.295 N 
ATOM     70  H   THR A   2      -5.912  11.881  46.417  0.00  0.00    +0.150 HD
ATOM     71  O   PRO A   1      -5.440  14.378  44.575  0.00  0.00    -0.274 OA
BRANCH  68  76
ATOM     72  N   PRO A   1      -5.250  14.089  47.889  0.00  0.00    -0.210 NA
ATOM     73  CD  PRO A   1      -4.252  15.192  48.176  0.00  0.00    +0.089 C 
ATOM     74  CG  PRO A   1      -4.654  16.335  47.261  0.00  0.00    +0.021 C 
ATOM     75  CB  PRO A   1      -6.125  15.931  46.780  0.00  0.00    +0.028 C 
ATOM     76  CA  PRO A   1      -6.147  14.394  46.851  0.00  0.00    +0.149 C 
ENDBRANCH  68  76
ENDBRANCH  67  69
BRANCH  67  77
ATOM     77  CB  THR A   2      -4.907  10.334  44.425  0.00  0.00    +0.137 C 
ATOM     78  CG2 THR A   2      -5.709   9.445  45.404  0.00  0.00    +0.034 C 
BRANCH  77  79
ATOM     79  OG1 THR A   2      -4.790   9.645  43.159  0.00  0.00    -0.382 OA
ATOM     80  HG1 THR A   2      -5.694   9.482  42.788  0.00  0.00    +0.210 HD
ENDBRANCH  77  79
ENDBRANCH  67  77
ENDBRANCH  60  67
ENDBRANCH  56  66
ENDBRANCH  55  57
BRANCH  55  81
ATOM     81  CB  ILE A   4      -7.298   7.097  40.139  0.00  0.00    +0.027 C 
ATOM     82  CG2 ILE A   4      -7.718   5.586  40.136  0.00  0.00    +0.002 C 
BRANCH  81  83
ATOM     83  CG1 ILE A   4      -7.849   7.824  38.870  0.00  0.00    +0.002 C 
ATOM     84  CD1 ILE A   4      -7.568   7.109  37.448  0.00  0.00    +0.000 C 
ENDBRANCH  81  83
ENDBRANCH  55  81
ENDBRANCH  51  55
ENDBRANCH  50  52
BRANCH  50  85
ATOM     85  CB  ASN A   5      -8.058   4.853  45.352  0.00  0.00    +0.114 C 
BRANCH  85  86
ATOM     86  CG  ASN A   5      -8.955   5.805  46.073  0.00  0.00    +0.222 C 
ATOM     87  OD1 ASN A   5      -8.551   6.926  46.468  0.00  0.00    -0.275 OA
ATOM     88  ND2 ASN A   5     -10.220   5.325  46.345  0.00  0.00    -0.329 N 
ATOM     89 HD21 ASN A   5     -10.886   5.899  46.900  0.00  0.00    +0.145 HD
ATOM     90 HD22 ASN A   5     -10.507   4.389  45.995  0.00  0.00    +0.145 HD
ENDBRANCH  85  86
ENDBRANCH  50  85
ENDBRANCH  46  50
ENDBRANCH   1  47
BRANCH   1  91
ATOM     91  CB  ILE A   6      -2.831   4.183  42.879  0.00  0.00    +0.027 C 
ATOM     92  CG2 ILE A   6      -3.556   5.167  41.712  0.00  0.00    +0.002 C 
BRANCH  91  93
ATOM     93  CG1 ILE A   6      -1.975   5.058  43.731  0.00  0.00    +0.002 C 
ATOM     94  CD1 ILE A   6      -0.677   5.774  42.811  0.00  0.00    +0.000 C 
ENDBRANCH  91  93
ENDBRANCH   1  91
TORSDOF 34
REMARK  Name = ../refined-set-2016/3s56/3s56_pocket.pdb
REMARK  225 active torsions:
REMARK  status: ('A' for Active; 'I' for Inactive)
REMARK    1  A    between atoms: _1  and  _3
REMARK    2  A    between atoms: _3  and  _4
REMARK    3  A    between atoms: _3  and  _6
REMARK    4  A    between atoms: _6  and  _7
REMARK    5  A    between atoms: _7  and  _8
REMARK    6  A    between atoms: _8  and  _9
REMARK    7  A    between atoms: _18  and  _20
REMARK    8  A    between atoms: _20  and  _21
REMARK    9  A    between atoms: _20  and  _23
REMARK   10  A    between atoms: _23  and  _24
REMARK   11  A    between atoms: _27  and  _29
REMARK   12  A    between atoms: _29  and  _30
REMARK   13  A    between atoms: _29  and  _32
REMARK   14  A    between atoms: _32  and  _33
REMARK   15  A    between atoms: _36  and  _38
REMARK   16  A    between atoms: _38  and  _39
REMARK   17  A    between atoms: _38  and  _41
REMARK   18  A    between atoms: _41  and  _42
REMARK   19  A    between atoms: _45  and  _47
REMARK   20  A    between atoms: _47  and  _48
REMARK   21  A    between atoms: _47  and  _50
REMARK   22  A    between atoms: _50  and  _51
REMARK   23  A    between atoms: _54  and  _56
REMARK   24  A    between atoms: _56  and  _57
REMARK   25  A    between atoms: _59  and  _61
REMARK   26  A    between atoms: _61  and  _62
REMARK   27  A    between atoms: _65  and  _67
REMARK   28  A    between atoms: _67  and  _68
REMARK   29  A    between atoms: _67  and  _70
REMARK   30  A    between atoms: _70  and  _71
REMARK   31  A    between atoms: _74  and  _76
REMARK   32  A    between atoms: _76  and  _77
REMARK   33  A    between atoms: _76  and  _79
REMARK   34  A    between atoms: _79  and  _80
REMARK   35  A    between atoms: _83  and  _85
REMARK   36  A    between atoms: _85  and  _86
REMARK   37  A    between atoms: _85  and  _88
REMARK   38  A    between atoms: _88  and  _89
REMARK   39  A    between atoms: _92  and  _94
REMARK   40  A    between atoms: _94  and  _95
REMARK   41  A    between atoms: _94  and  _97
REMARK   42  A    between atoms: _97  and  _98
REMARK   43  A    between atoms: _101  and  _103
REMARK   44  A    between atoms: _103  and  _104
REMARK   45  A    between atoms: _103  and  _106
REMARK   46  A    between atoms: _106  and  _107
REMARK   47  A    between atoms: _107  and  _108
REMARK   48  A    between atoms: _108  and  _109
REMARK   49  A    between atoms: _109  and  _110
REMARK   50  A    between atoms: _114  and  _116
REMARK   51  A    between atoms: _116  and  _117
REMARK   52  A    between atoms: _116  and  _119
REMARK   53  A    between atoms: _119  and  _120
REMARK   54  A    between atoms: _120  and  _121
REMARK   55  A    between atoms: _123  and  _125
REMARK   56  A    between atoms: _125  and  _126
REMARK   57  A    between atoms: _125  and  _128
REMARK   58  A    between atoms: _131  and  _133
REMARK   59  A    between atoms: _133  and  _134
REMARK   60  A    between atoms: _136  and  _138
REMARK   61  A    between atoms: _138  and  _139
REMARK   62  A    between atoms: _141  and  _143
REMARK   63  A    between atoms: _143  and  _144
REMARK   64  A    between atoms: _143  and  _146
REMARK   65  A    between atoms: _146  and  _147
REMARK   66  A    between atoms: _150  and  _152
REMARK   67  A    between atoms: _152  and  _153
REMARK   68  A    between atoms: _155  and  _157
REMARK   69  A    between atoms: _157  and  _158
REMARK   70  A    between atoms: _160  and  _162
REMARK   71  A    between atoms: _162  and  _163
REMARK   72  A    between atoms: _162  and  _165
REMARK   73  A    between atoms: _165  and  _166
REMARK   74  A    between atoms: _172  and  _174
REMARK   75  A    between atoms: _174  and  _175
REMARK   76  A    between atoms: _174  and  _177
REMARK   77  A    between atoms: _177  and  _178
REMARK   78  A    between atoms: _181  and  _183
REMARK   79  A    between atoms: _183  and  _184
REMARK   80  A    between atoms: _183  and  _186
REMARK   81  A    between atoms: _189  and  _191
REMARK   82  A    between atoms: _191  and  _192
REMARK   83  A    between atoms: _191  and  _194
REMARK   84  A    between atoms: _194  and  _195
REMARK   85  A    between atoms: _199  and  _200
REMARK   86  A    between atoms: _205  and  _207
REMARK   87  A    between atoms: _207  and  _208
REMARK   88  A    between atoms: _207  and  _210
REMARK   89  A    between atoms: _210  and  _211
REMARK   90  A    between atoms: _215  and  _216
REMARK   91  A    between atoms: _221  and  _223
REMARK   92  A    between atoms: _223  and  _224
REMARK   93  A    between atoms: _223  and  _226
REMARK   94  A    between atoms: _226  and  _227
REMARK   95  A    between atoms: _230  and  _232
REMARK   96  A    between atoms: _232  and  _233
REMARK   97  A    between atoms: _232  and  _235
REMARK   98  A    between atoms: _235  and  _236
REMARK   99  A    between atoms: _241  and  _243
REMARK  100  A    between atoms: _243  and  _244
REMARK  101  A    between atoms: _243  and  _246
REMARK  102  A    between atoms: _246  and  _247
REMARK  103  A    between atoms: _250  and  _252
REMARK  104  A    between atoms: _252  and  _253
REMARK  105  A    between atoms: _252  and  _255
REMARK  106  A    between atoms: _255  and  _256
REMARK  107  A    between atoms: _259  and  _261
REMARK  108  A    between atoms: _261  and  _262
REMARK  109  A    between atoms: _264  and  _266
REMARK  110  A    between atoms: _266  and  _267
REMARK  111  A    between atoms: _266  and  _269
REMARK  112  A    between atoms: _269  and  _270
REMARK  113  A    between atoms: _270  and  _271
REMARK  114  A    between atoms: _271  and  _272
REMARK  115  A    between atoms: _281  and  _283
REMARK  116  A    between atoms: _283  and  _284
REMARK  117  A    between atoms: _283  and  _286
REMARK  118  A    between atoms: _286  and  _287
REMARK  119  A    between atoms: _292  and  _294
REMARK  120  A    between atoms: _294  and  _295
REMARK  121  A    between atoms: _294  and  _297
REMARK  122  A    between atoms: _297  and  _298
REMARK  123  A    between atoms: _298  and  _299
REMARK  124  A    between atoms: _299  and  _300
REMARK  125  A    between atoms: _309  and  _311
REMARK  126  A    between atoms: _311  and  _312
REMARK  127  A    between atoms: _311  and  _314
REMARK  128  A    between atoms: _314  and  _315
REMARK  129  A    between atoms: _318  and  _320
REMARK  130  A    between atoms: _320  and  _321
REMARK  131  A    between atoms: _320  and  _323
REMARK  132  A    between atoms: _323  and  _324
REMARK  133  A    between atoms: _327  and  _329
REMARK  134  A    between atoms: _329  and  _330
REMARK  135  A    between atoms: _329  and  _332
REMARK  136  A    between atoms: _332  and  _333
REMARK  137  A    between atoms: _336  and  _338
REMARK  138  A    between atoms: _338  and  _339
REMARK  139  A    between atoms: _338  and  _341
REMARK  140  A    between atoms: _341  and  _342
REMARK  141  A    between atoms: _345  and  _347
REMARK  142  A    between atoms: _347  and  _348
REMARK  143  A    between atoms: _350  and  _352
REMARK  144  A    between atoms: _352  and  _353
REMARK  145  A    between atoms: _356  and  _358
REMARK  146  A    between atoms: _358  and  _359
REMARK  147  A    between atoms: _358  and  _361
REMARK  148  A    between atoms: _361  and  _362
REMARK  149  A    between atoms: _365  and  _367
REMARK  150  A    between atoms: _367  and  _368
REMARK  151  A    between atoms: _367  and  _370
REMARK  152  A    between atoms: _370  and  _371
REMARK  153  A    between atoms: _374  and  _376
REMARK  154  A    between atoms: _376  and  _377
REMARK  155  A    between atoms: _376  and  _379
REMARK  156  A    between atoms: _379  and  _380
REMARK  157  A    between atoms: _383  and  _385
REMARK  158  A    between atoms: _385  and  _386
REMARK  159  A    between atoms: _385  and  _388
REMARK  160  A    between atoms: _388  and  _389
REMARK  161  A    between atoms: _392  and  _394
REMARK  162  A    between atoms: _394  and  _395
REMARK  163  A    between atoms: _394  and  _397
REMARK  164  A    between atoms: _397  and  _398
REMARK  165  A    between atoms: _398  and  _399
REMARK  166  A    between atoms: _401  and  _403
REMARK  167  A    between atoms: _403  and  _404
REMARK  168  A    between atoms: _403  and  _406
REMARK  169  A    between atoms: _409  and  _411
REMARK  170  A    between atoms: _411  and  _412
REMARK  171  A    between atoms: _414  and  _416
REMARK  172  A    between atoms: _416  and  _417
REMARK  173  A    between atoms: _419  and  _421
REMARK  174  A    between atoms: _421  and  _422
REMARK  175  A    between atoms: _421  and  _424
REMARK  176  A    between atoms: _424  and  _425
REMARK  177  A    between atoms: _428  and  _430
REMARK  178  A    between atoms: _430  and  _431
REMARK  179  A    between atoms: _433  and  _435
REMARK  180  A    between atoms: _435  and  _436
REMARK  181  A    between atoms: _438  and  _440
REMARK  182  A    between atoms: _440  and  _441
REMARK  183  A    between atoms: _440  and  _443
REMARK  184  A    between atoms: _443  and  _444
REMARK  185  A    between atoms: _447  and  _449
REMARK  186  A    between atoms: _449  and  _450
REMARK  187  A    between atoms: _449  and  _452
REMARK  188  A    between atoms: _455  and  _457
REMARK  189  A    between atoms: _457  and  _458
REMARK  190  A    between atoms: _457  and  _460
REMARK  191  A    between atoms: _460  and  _461
REMARK  192  A    between atoms: _465  and  _466
REMARK  193  A    between atoms: _471  and  _473
REMARK  194  A    between atoms: _473  and  _474
REMARK  195  A    between atoms: _473  and  _476
REMARK  196  A    between atoms: _476  and  _477
REMARK  197  A    between atoms: _481  and  _482
REMARK  198  A    between atoms: _487  and  _489
REMARK  199  A    between atoms: _489  and  _490
REMARK  200  A    between atoms: _489  and  _492
REMARK  201  A    between atoms: _492  and  _493
REMARK  202  A    between atoms: _496  and  _498
REMARK  203  A    between atoms: _498  and  _499
REMARK  204  A    between atoms: _498  and  _501
REMARK  205  A    between atoms: _501  and  _502
REMARK  206  A    between atoms: _507  and  _509
REMARK  207  A    between atoms: _509  and  _510
REMARK  208  A    between atoms: _509  and  _512
REMARK  209  A    between atoms: _512  and  _513
REMARK  210  A    between atoms: _516  and  _518
REMARK  211  A    between atoms: _518  and  _519
REMARK  212  A    between atoms: _518  and  _521
REMARK  213  A    between atoms: _521  and  _522
REMARK  214  A    between atoms: _525  and  _527
REMARK  215  A    between atoms: _527  and  _528
REMARK  216  A    between atoms: _530  and  _532
REMARK  217  A    between atoms: _532  and  _533
REMARK  218  A    between atoms: _532  and  _535
REMARK  219  A    between atoms: _535  and  _536
REMARK  220  A    between atoms: _536  and  _537
REMARK  221  A    between atoms: _537  and  _538
REMARK  222  A    between atoms: _547  and  _549
REMARK  223  A    between atoms: _549  and  _550
REMARK  224  A    between atoms: _549  and  _552
REMARK  225  A    between atoms: _552  and  _553
REMARK                            x       y       z     vdW  Elec       q    Type
REMARK                         _______ _______ _______ _____ _____    ______ ____
ROOT
ATOM      1  NE  ARG A   1      10.960   4.111  41.297  0.00  0.00    -0.265 N 
ATOM      2  HE  ARG A   1      10.098   3.997  41.867  0.00  0.00    +0.259 HD
ATOM      3  CZ  ARG A   1      11.701   5.194  41.512  0.00  0.00    +0.342 C 
ATOM      4  NH2 ARG A   1      11.292   6.096  42.405  0.00  0.00    -0.292 N 
ATOM      5 HH21 ARG A   1      10.403   5.948  42.924  0.00  0.00    +0.255 HD
ATOM      6 HH22 ARG A   1      11.862   6.947  42.583  0.00  0.00    +0.255 HD
ATOM      7  NH1 ARG A   1      12.843   5.416  40.783  0.00  0.00    -0.292 N 
ATOM      8 HH11 ARG A   1      13.415   6.266  40.959  0.00  0.00    +0.255 HD
ATOM      9 HH12 ARG A   1      13.136   4.734  40.055  0.00  0.00    +0.255 HD
ENDROOT
BRANCH   1  10
ATOM     10  CD  ARG A   1      11.268   3.065  40.316  0.00  0.00    +0.174 C 
BRANCH  10  11
ATOM     11  CG  ARG A   1      10.488   1.709  40.484  0.00  0.00    +0.045 C 
BRANCH  11  12
ATOM     12  CB  ARG A   1      10.920   0.659  39.381  0.00  0.00    +0.029 C 
BRANCH  12  13
ATOM     13  CA  ARG A   1      10.415  -0.742  39.721  0.00  0.00    +0.133 C 
BRANCH  13  14
ATOM     14  N   ARG A   1      11.185  -1.271  40.886  0.00  0.00    -0.239 NA
ATOM     15  H   ARG A   1      11.959  -0.707  41.291  0.00  0.00    +0.142 HD
ENDBRANCH  13  14
BRANCH  13  16
ATOM     16  C   ARG A   1      10.565  -1.701  38.536  0.00  0.00    +0.224 C 
ATOM     17  O   ARG A   1      11.693  -2.116  38.234  0.00  0.00    -0.287 OA
ENDBRANCH  13  16
ENDBRANCH  12  13
ENDBRANCH  11  12
ENDBRANCH  10  11
ENDBRANCH   1  10
TORSDOF 6
REMARK  Name = ../refined-set-2016/3s56/3s56_pocket.pdb
REMARK  225 active torsions:
REMARK  status: ('A' for Active; 'I' for Inactive)
REMARK    1  A    between atoms: _1  and  _3
REMARK    2  A    between atoms: _3  and  _4
REMARK    3  A    between atoms: _3  and  _6
REMARK    4  A    between atoms: _6  and  _7
REMARK    5  A    between atoms: _7  and  _8
REMARK    6  A    between atoms: _8  and  _9
REMARK    7  A    between atoms: _18  and  _20
REMARK    8  A    between atoms: _20  and  _21
REMARK    9  A    between atoms: _20  and  _23
REMARK   10  A    between atoms: _23  and  _24
REMARK   11  A    between atoms: _27  and  _29
REMARK   12  A    between atoms: _29  and  _30
REMARK   13  A    between atoms: _29  and  _32
REMARK   14  A    between atoms: _32  and  _33
REMARK   15  A    between atoms: _36  and  _38
REMARK   16  A    between atoms: _38  and  _39
REMARK   17  A    between atoms: _38  and  _41
REMARK   18  A    between atoms: _41  and  _42
REMARK   19  A    between atoms: _45  and  _47
REMARK   20  A    between atoms: _47  and  _48
REMARK   21  A    between atoms: _47  and  _50
REMARK   22  A    between atoms: _50  and  _51
REMARK   23  A    between atoms: _54  and  _56
REMARK   24  A    between atoms: _56  and  _57
REMARK   25  A    between atoms: _59  and  _61
REMARK   26  A    between atoms: _61  and  _62
REMARK   27  A    between atoms: _65  and  _67
REMARK   28  A    between atoms: _67  and  _68
REMARK   29  A    between atoms: _67  and  _70
REMARK   30  A    between atoms: _70  and  _71
REMARK   31  A    between atoms: _74  and  _76
REMARK   32  A    between atoms: _76  and  _77
REMARK   33  A    between atoms: _76  and  _79
REMARK   34  A    between atoms: _79  and  _80
REMARK   35  A    between atoms: _83  and  _85
REMARK   36  A    between atoms: _85  and  _86
REMARK   37  A    between atoms: _85  and  _88
REMARK   38  A    between atoms: _88  and  _89
REMARK   39  A    between atoms: _92  and  _94
REMARK   40  A    between atoms: _94  and  _95
REMARK   41  A    between atoms: _94  and  _97
REMARK   42  A    between atoms: _97  and  _98
REMARK   43  A    between atoms: _101  and  _103
REMARK   44  A    between atoms: _103  and  _104
REMARK   45  A    between atoms: _103  and  _106
REMARK   46  A    between atoms: _106  and  _107
REMARK   47  A    between atoms: _107  and  _108
REMARK   48  A    between atoms: _108  and  _109
REMARK   49  A    between atoms: _109  and  _110
REMARK   50  A    between atoms: _114  and  _116
REMARK   51  A    between atoms: _116  and  _117
REMARK   52  A    between atoms: _116  and  _119
REMARK   53  A    between atoms: _119  and  _120
REMARK   54  A    between atoms: _120  and  _121
REMARK   55  A    between atoms: _123  and  _125
REMARK   56  A    between atoms: _125  and  _126
REMARK   57  A    between atoms: _125  and  _128
REMARK   58  A    between atoms: _131  and  _133
REMARK   59  A    between atoms: _133  and  _134
REMARK   60  A    between atoms: _136  and  _138
REMARK   61  A    between atoms: _138  and  _139
REMARK   62  A    between atoms: _141  and  _143
REMARK   63  A    between atoms: _143  and  _144
REMARK   64  A    between atoms: _143  and  _146
REMARK   65  A    between atoms: _146  and  _147
REMARK   66  A    between atoms: _150  and  _152
REMARK   67  A    between atoms: _152  and  _153
REMARK   68  A    between atoms: _155  and  _157
REMARK   69  A    between atoms: _157  and  _158
REMARK   70  A    between atoms: _160  and  _162
REMARK   71  A    between atoms: _162  and  _163
REMARK   72  A    between atoms: _162  and  _165
REMARK   73  A    between atoms: _165  and  _166
REMARK   74  A    between atoms: _172  and  _174
REMARK   75  A    between atoms: _174  and  _175
REMARK   76  A    between atoms: _174  and  _177
REMARK   77  A    between atoms: _177  and  _178
REMARK   78  A    between atoms: _181  and  _183
REMARK   79  A    between atoms: _183  and  _184
REMARK   80  A    between atoms: _183  and  _186
REMARK   81  A    between atoms: _189  and  _191
REMARK   82  A    between atoms: _191  and  _192
REMARK   83  A    between atoms: _191  and  _194
REMARK   84  A    between atoms: _194  and  _195
REMARK   85  A    between atoms: _199  and  _200
REMARK   86  A    between atoms: _205  and  _207
REMARK   87  A    between atoms: _207  and  _208
REMARK   88  A    between atoms: _207  and  _210
REMARK   89  A    between atoms: _210  and  _211
REMARK   90  A    between atoms: _215  and  _216
REMARK   91  A    between atoms: _221  and  _223
REMARK   92  A    between atoms: _223  and  _224
REMARK   93  A    between atoms: _223  and  _226
REMARK   94  A    between atoms: _226  and  _227
REMARK   95  A    between atoms: _230  and  _232
REMARK   96  A    between atoms: _232  and  _233
REMARK   97  A    between atoms: _232  and  _235
REMARK   98  A    between atoms: _235  and  _236
REMARK   99  A    between atoms: _241  and  _243
REMARK  100  A    between atoms: _243  and  _244
REMARK  101  A    between atoms: _243  and  _246
REMARK  102  A    between atoms: _246  and  _247
REMARK  103  A    between atoms: _250  and  _252
REMARK  104  A    between atoms: _252  and  _253
REMARK  105  A    between atoms: _252  and  _255
REMARK  106  A    between atoms: _255  and  _256
REMARK  107  A    between atoms: _259  and  _261
REMARK  108  A    between atoms: _261  and  _262
REMARK  109  A    between atoms: _264  and  _266
REMARK  110  A    between atoms: _266  and  _267
REMARK  111  A    between atoms: _266  and  _269
REMARK  112  A    between atoms: _269  and  _270
REMARK  113  A    between atoms: _270  and  _271
REMARK  114  A    between atoms: _271  and  _272
REMARK  115  A    between atoms: _281  and  _283
REMARK  116  A    between atoms: _283  and  _284
REMARK  117  A    between atoms: _283  and  _286
REMARK  118  A    between atoms: _286  and  _287
REMARK  119  A    between atoms: _292  and  _294
REMARK  120  A    between atoms: _294  and  _295
REMARK  121  A    between atoms: _294  and  _297
REMARK  122  A    between atoms: _297  and  _298
REMARK  123  A    between atoms: _298  and  _299
REMARK  124  A    between atoms: _299  and  _300
REMARK  125  A    between atoms: _309  and  _311
REMARK  126  A    between atoms: _311  and  _312
REMARK  127  A    between atoms: _311  and  _314
REMARK  128  A    between atoms: _314  and  _315
REMARK  129  A    between atoms: _318  and  _320
REMARK  130  A    between atoms: _320  and  _321
REMARK  131  A    between atoms: _320  and  _323
REMARK  132  A    between atoms: _323  and  _324
REMARK  133  A    between atoms: _327  and  _329
REMARK  134  A    between atoms: _329  and  _330
REMARK  135  A    between atoms: _329  and  _332
REMARK  136  A    between atoms: _332  and  _333
REMARK  137  A    between atoms: _336  and  _338
REMARK  138  A    between atoms: _338  and  _339
REMARK  139  A    between atoms: _338  and  _341
REMARK  140  A    between atoms: _341  and  _342
REMARK  141  A    between atoms: _345  and  _347
REMARK  142  A    between atoms: _347  and  _348
REMARK  143  A    between atoms: _350  and  _352
REMARK  144  A    between atoms: _352  and  _353
REMARK  145  A    between atoms: _356  and  _358
REMARK  146  A    between atoms: _358  and  _359
REMARK  147  A    between atoms: _358  and  _361
REMARK  148  A    between atoms: _361  and  _362
REMARK  149  A    between atoms: _365  and  _367
REMARK  150  A    between atoms: _367  and  _368
REMARK  151  A    between atoms: _367  and  _370
REMARK  152  A    between atoms: _370  and  _371
REMARK  153  A    between atoms: _374  and  _376
REMARK  154  A    between atoms: _376  and  _377
REMARK  155  A    between atoms: _376  and  _379
REMARK  156  A    between atoms: _379  and  _380
REMARK  157  A    between atoms: _383  and  _385
REMARK  158  A    between atoms: _385  and  _386
REMARK  159  A    between atoms: _385  and  _388
REMARK  160  A    between atoms: _388  and  _389
REMARK  161  A    between atoms: _392  and  _394
REMARK  162  A    between atoms: _394  and  _395
REMARK  163  A    between atoms: _394  and  _397
REMARK  164  A    between atoms: _397  and  _398
REMARK  165  A    between atoms: _398  and  _399
REMARK  166  A    between atoms: _401  and  _403
REMARK  167  A    between atoms: _403  and  _404
REMARK  168  A    between atoms: _403  and  _406
REMARK  169  A    between atoms: _409  and  _411
REMARK  170  A    between atoms: _411  and  _412
REMARK  171  A    between atoms: _414  and  _416
REMARK  172  A    between atoms: _416  and  _417
REMARK  173  A    between atoms: _419  and  _421
REMARK  174  A    between atoms: _421  and  _422
REMARK  175  A    between atoms: _421  and  _424
REMARK  176  A    between atoms: _424  and  _425
REMARK  177  A    between atoms: _428  and  _430
REMARK  178  A    between atoms: _430  and  _431
REMARK  179  A    between atoms: _433  and  _435
REMARK  180  A    between atoms: _435  and  _436
REMARK  181  A    between atoms: _438  and  _440
REMARK  182  A    between atoms: _440  and  _441
REMARK  183  A    between atoms: _440  and  _443
REMARK  184  A    between atoms: _443  and  _444
REMARK  185  A    between atoms: _447  and  _449
REMARK  186  A    between atoms: _449  and  _450
REMARK  187  A    between atoms: _449  and  _452
REMARK  188  A    between atoms: _455  and  _457
REMARK  189  A    between atoms: _457  and  _458
REMARK  190  A    between atoms: _457  and  _460
REMARK  191  A    between atoms: _460  and  _461
REMARK  192  A    between atoms: _465  and  _466
REMARK  193  A    between atoms: _471  and  _473
REMARK  194  A    between atoms: _473  and  _474
REMARK  195  A    between atoms: _473  and  _476
REMARK  196  A    between atoms: _476  and  _477
REMARK  197  A    between atoms: _481  and  _482
REMARK  198  A    between atoms: _487  and  _489
REMARK  199  A    between atoms: _489  and  _490
REMARK  200  A    between atoms: _489  and  _492
REMARK  201  A    between atoms: _492  and  _493
REMARK  202  A    between atoms: _496  and  _498
REMARK  203  A    between atoms: _498  and  _499
REMARK  204  A    between atoms: _498  and  _501
REMARK  205  A    between atoms: _501  and  _502
REMARK  206  A    between atoms: _507  and  _509
REMARK  207  A    between atoms: _509  and  _510
REMARK  208  A    between atoms: _509  and  _512
REMARK  209  A    between atoms: _512  and  _513
REMARK  210  A    between atoms: _516  and  _518
REMARK  211  A    between atoms: _518  and  _519
REMARK  212  A    between atoms: _518  and  _521
REMARK  213  A    between atoms: _521  and  _522
REMARK  214  A    between atoms: _525  and  _527
REMARK  215  A    between atoms: _527  and  _528
REMARK  216  A    between atoms: _530  and  _532
REMARK  217  A    between atoms: _532  and  _533
REMARK  218  A    between atoms: _532  and  _535
REMARK  219  A    between atoms: _535  and  _536
REMARK  220  A    between atoms: _536  and  _537
REMARK  221  A    between atoms: _537  and  _538
REMARK  222  A    between atoms: _547  and  _549
REMARK  223  A    between atoms: _549  and  _550
REMARK  224  A    between atoms: _549  and  _552
REMARK  225  A    between atoms: _552  and  _553
REMARK                            x       y       z     vdW  Elec       q    Type
REMARK                         _______ _______ _______ _____ _____    ______ ____
ROOT
ATOM      1  C   GLY A   5      -2.068   2.933  35.046  0.00  0.00    +0.243 C 
ATOM      2  O   GLY A   5      -2.943   3.816  35.137  0.00  0.00    -0.273 OA
ATOM      3  N   ALA A   6      -1.186   2.902  34.038  0.00  0.00    -0.297 N 
ATOM      4  H   ALA A   6      -0.468   2.151  33.985  0.00  0.00    +0.150 HD
ENDROOT
BRANCH   3   5
ATOM      5  CA  ALA A   6      -1.253   3.961  32.997  0.00  0.00    +0.149 C 
ATOM      6  CB  ALA A   6       0.148   4.254  32.419  0.00  0.00    +0.031 C 
BRANCH   5   7
ATOM      7  C   ALA A   6      -2.166   3.517  31.806  0.00  0.00    +0.241 C 
ATOM      8  N   ASP A   7      -3.113   4.352  31.426  0.00  0.00    -0.297 N 
ATOM      9  H   ASP A   7      -3.251   5.244  31.942  0.00  0.00    +0.150 HD
ATOM     10  O   ALA A   6      -1.986   2.414  31.301  0.00  0.00    -0.273 OA
BRANCH   8  11
ATOM     11  CA  ASP A   7      -3.978   4.032  30.277  0.00  0.00    +0.160 C 
BRANCH  11  12
ATOM     12  C   ASP A   7      -3.133   4.185  28.995  0.00  0.00    +0.241 C 
ATOM     13  N   ASP A   8      -2.167   5.145  28.963  0.00  0.00    -0.297 N 
ATOM     14  H   ASP A   8      -1.922   5.604  29.863  0.00  0.00    +0.150 HD
ATOM     15  O   ASP A   7      -3.356   3.389  28.078  0.00  0.00    -0.273 OA
BRANCH  13  16
ATOM     16  CA  ASP A   8      -1.439   5.588  27.758  0.00  0.00    +0.160 C 
BRANCH  16  17
ATOM     17  C   ASP A   8       0.058   5.357  27.945  0.00  0.00    +0.241 C 
ATOM     18  O   ASP A   8       0.519   5.179  29.071  0.00  0.00    -0.273 OA
ATOM     19  N   THR A   9       0.791   5.358  26.852  0.00  0.00    -0.295 N 
ATOM     20  H   THR A   9       0.315   5.466  25.934  0.00  0.00    +0.150 HD
BRANCH  19  21
ATOM     21  CA  THR A   9       2.265   5.212  26.873  0.00  0.00    +0.176 C 
BRANCH  21  22
ATOM     22  C   THR A   9       2.849   6.603  26.636  0.00  0.00    +0.243 C 
ATOM     23  N   ILE A  10       3.854   7.013  27.425  0.00  0.00    -0.298 N 
ATOM     24  H   ILE A  10       4.233   6.386  28.163  0.00  0.00    +0.150 HD
ATOM     25  O   THR A   9       2.396   7.330  25.692  0.00  0.00    -0.273 OA
BRANCH  23  26
ATOM     26  CA  ILE A  10       4.406   8.341  27.236  0.00  0.00    +0.137 C 
BRANCH  26  27
ATOM     27  C   ILE A  10       5.911   8.271  27.321  0.00  0.00    +0.227 C 
ATOM     28  O   ILE A  10       6.470   7.599  28.213  0.00  0.00    -0.286 OA
ENDBRANCH  26  27
BRANCH  26  29
ATOM     29  CB  ILE A  10       3.820   9.384  28.268  0.00  0.00    +0.026 C 
ATOM     30  CG2 ILE A  10       3.969   8.869  29.705  0.00  0.00    +0.002 C 
BRANCH  29  31
ATOM     31  CG1 ILE A  10       4.547  10.741  28.140  0.00  0.00    +0.002 C 
ATOM     32  CD1 ILE A  10       3.780  11.813  28.869  0.00  0.00    +0.000 C 
ENDBRANCH  29  31
ENDBRANCH  26  29
ENDBRANCH  23  26
ENDBRANCH  21  22
BRANCH  21  33
ATOM     33  CB  THR A   9       2.664   4.277  25.752  0.00  0.00    +0.137 C 
ATOM     34  CG2 THR A   9       4.161   4.311  25.507  0.00  0.00    +0.034 C 
BRANCH  33  35
ATOM     35  OG1 THR A   9       2.247   2.928  26.094  0.00  0.00    -0.382 OA
ATOM     36  HG1 THR A   9       1.264   2.908  26.214  0.00  0.00    +0.210 HD
ENDBRANCH  33  35
ENDBRANCH  21  33
ENDBRANCH  19  21
ENDBRANCH  16  17
BRANCH  16  37
ATOM     37  CB  ASP A   8      -1.626   7.134  27.607  0.00  0.00    +0.143 C 
BRANCH  37  38
ATOM     38  CG  ASP A   8      -3.122   7.542  27.457  0.00  0.00    +0.367 C 
ATOM     39  OD2 ASP A   8      -3.508   8.578  27.988  0.00  0.00    -0.246 OA
ATOM     40  OD1 ASP A   8      -3.932   6.813  26.905  0.00  0.00    -0.246 OA
ENDBRANCH  37  38
ENDBRANCH  16  37
ENDBRANCH  13  16
ENDBRANCH  11  12
BRANCH  11  41
ATOM     41  CB  ASP A   7      -5.107   5.056  30.113  0.00  0.00    +0.143 C 
BRANCH  41  42
ATOM     42  CG  ASP A   7      -6.133   5.065  31.299  0.00  0.00    +0.367 C 
ATOM     43  OD2 ASP A   7      -6.220   4.032  31.994  0.00  0.00    -0.246 OA
ATOM     44  OD1 ASP A   7      -6.812   6.131  31.520  0.00  0.00    -0.246 OA
ENDBRANCH  41  42
ENDBRANCH  11  41
ENDBRANCH   8  11
ENDBRANCH   5   7
ENDBRANCH   3   5
BRANCH   1  45
ATOM     45  CA  GLY A   5      -1.933   1.873  36.161  0.00  0.00    +0.176 C 
BRANCH  45  47
ATOM     46  C   THR A   4      -1.478  -0.227  35.106  0.00  0.00    +0.243 C 
ATOM     47  N   GLY A   5      -0.981   0.843  35.698  0.00  0.00    -0.295 N 
ATOM     48  H   GLY A   5       0.044   0.957  35.834  0.00  0.00    +0.150 HD
ATOM     49  O   THR A   4      -2.694  -0.297  34.721  0.00  0.00    -0.273 OA
BRANCH  46  50
ATOM     50  CA  THR A   4      -0.520  -1.319  34.726  0.00  0.00    +0.176 C 
BRANCH  50  52
ATOM     51  C   ASP A   3       1.366   0.055  33.956  0.00  0.00    +0.241 C 
ATOM     52  N   THR A   4       0.878  -0.869  34.791  0.00  0.00    -0.295 N 
ATOM     53  H   THR A   4       1.507  -1.282  35.509  0.00  0.00    +0.150 HD
ATOM     54  O   ASP A   3       0.670   0.598  33.110  0.00  0.00    -0.273 OA
BRANCH  51  55
ATOM     55  CA  ASP A   3       2.842   0.499  34.176  0.00  0.00    +0.160 C 
BRANCH  55  58
ATOM     56  C   LEU A   2       4.756  -0.927  33.701  0.00  0.00    +0.241 C 
ATOM     57  O   LEU A   2       4.832  -1.317  34.901  0.00  0.00    -0.273 OA
ATOM     58  N   ASP A   3       3.763  -0.202  33.233  0.00  0.00    -0.297 N 
ATOM     59  H   ASP A   3       3.620  -0.117  32.206  0.00  0.00    +0.150 HD
BRANCH  56  60
ATOM     60  CA  LEU A   2       5.837  -1.256  32.637  0.00  0.00    +0.149 C 
BRANCH  60  62
ATOM     61  C   LEU A   1       7.262   0.755  32.699  0.00  0.00    +0.238 C 
ATOM     62  N   LEU A   2       7.067  -0.526  32.986  0.00  0.00    -0.297 N 
ATOM     63  H   LEU A   2       7.822  -1.041  33.483  0.00  0.00    +0.150 HD
ATOM     64  O   LEU A   1       6.437   1.441  32.064  0.00  0.00    -0.274 OA
BRANCH  61  65
ATOM     65  CA  LEU A   1       8.520   1.426  33.234  0.00  0.00    +0.145 C 
BRANCH  65  66
ATOM     66  N   LEU A   1       9.290   2.039  32.139  0.00  0.00    -0.238 NA
ATOM     67  H   LEU A   1       9.094   3.031  31.896  0.00  0.00    +0.142 HD
ENDBRANCH  65  66
BRANCH  65  68
ATOM     68  CB  LEU A   1       8.194   2.588  34.149  0.00  0.00    +0.026 C 
BRANCH  68  69
ATOM     69  CG  LEU A   1       7.501   2.390  35.484  0.00  0.00    +0.002 C 
ATOM     70  CD2 LEU A   1       8.490   1.653  36.450  0.00  0.00    +0.000 C 
ATOM     71  CD1 LEU A   1       7.021   3.752  36.141  0.00  0.00    +0.000 C 
ENDBRANCH  68  69
ENDBRANCH  65  68
ENDBRANCH  61  65
ENDBRANCH  60  62
BRANCH  60  72
ATOM     72  CB  LEU A   2       6.094  -2.727  32.635  0.00  0.00    +0.029 C 
BRANCH  72  73
ATOM     73  CG  LEU A   2       7.224  -3.111  31.620  0.00  0.00    +0.002 C 
ATOM     74  CD2 LEU A   2       7.275  -4.640  31.579  0.00  0.00    +0.000 C 
ATOM     75  CD1 LEU A   2       7.024  -2.548  30.160  0.00  0.00    +0.000 C 
ENDBRANCH  72  73
ENDBRANCH  60  72
ENDBRANCH  56  60
ENDBRANCH  55  58
BRANCH  55  76
ATOM     76  CB  ASP A   3       2.900   1.998  33.968  0.00  0.00    +0.143 C 
BRANCH  76  77
ATOM     77  CG  ASP A   3       2.183   2.748  35.115  0.00  0.00    +0.367 C 
ATOM     78  OD2 ASP A   3       1.510   2.039  35.898  0.00  0.00    -0.246 OA
ATOM     79  OD1 ASP A   3       2.364   3.962  35.190  0.00  0.00    -0.246 OA
ENDBRANCH  76  77
ENDBRANCH  55  76
ENDBRANCH  51  55
ENDBRANCH  50  52
BRANCH  50  80
ATOM     80  CB  THR A   4      -0.801  -2.515  35.626  0.00  0.00    +0.137 C 
ATOM     81  CG2 THR A   4       0.108  -3.674  35.245  0.00  0.00    +0.034 C 
BRANCH  80  82
ATOM     82  OG1 THR A   4      -0.549  -2.142  37.001  0.00  0.00    -0.382 OA
ATOM     83  HG1 THR A   4      -1.141  -1.389  37.251  0.00  0.00    +0.210 HD
ENDBRANCH  80  82
ENDBRANCH  50  80
ENDBRANCH  46  50
ENDBRANCH  45  47
ENDBRANCH   1  45
TORSDOF 36
REMARK  Name = ../refined-set-2016/3s56/3s56_pocket.pdb
REMARK  225 active torsions:
REMARK  status: ('A' for Active; 'I' for Inactive)
REMARK    1  A    between atoms: _1  and  _3
REMARK    2  A    between atoms: _3  and  _4
REMARK    3  A    between atoms: _3  and  _6
REMARK    4  A    between atoms: _6  and  _7
REMARK    5  A    between atoms: _7  and  _8
REMARK    6  A    between atoms: _8  and  _9
REMARK    7  A    between atoms: _18  and  _20
REMARK    8  A    between atoms: _20  and  _21
REMARK    9  A    between atoms: _20  and  _23
REMARK   10  A    between atoms: _23  and  _24
REMARK   11  A    between atoms: _27  and  _29
REMARK   12  A    between atoms: _29  and  _30
REMARK   13  A    between atoms: _29  and  _32
REMARK   14  A    between atoms: _32  and  _33
REMARK   15  A    between atoms: _36  and  _38
REMARK   16  A    between atoms: _38  and  _39
REMARK   17  A    between atoms: _38  and  _41
REMARK   18  A    between atoms: _41  and  _42
REMARK   19  A    between atoms: _45  and  _47
REMARK   20  A    between atoms: _47  and  _48
REMARK   21  A    between atoms: _47  and  _50
REMARK   22  A    between atoms: _50  and  _51
REMARK   23  A    between atoms: _54  and  _56
REMARK   24  A    between atoms: _56  and  _57
REMARK   25  A    between atoms: _59  and  _61
REMARK   26  A    between atoms: _61  and  _62
REMARK   27  A    between atoms: _65  and  _67
REMARK   28  A    between atoms: _67  and  _68
REMARK   29  A    between atoms: _67  and  _70
REMARK   30  A    between atoms: _70  and  _71
REMARK   31  A    between atoms: _74  and  _76
REMARK   32  A    between atoms: _76  and  _77
REMARK   33  A    between atoms: _76  and  _79
REMARK   34  A    between atoms: _79  and  _80
REMARK   35  A    between atoms: _83  and  _85
REMARK   36  A    between atoms: _85  and  _86
REMARK   37  A    between atoms: _85  and  _88
REMARK   38  A    between atoms: _88  and  _89
REMARK   39  A    between atoms: _92  and  _94
REMARK   40  A    between atoms: _94  and  _95
REMARK   41  A    between atoms: _94  and  _97
REMARK   42  A    between atoms: _97  and  _98
REMARK   43  A    between atoms: _101  and  _103
REMARK   44  A    between atoms: _103  and  _104
REMARK   45  A    between atoms: _103  and  _106
REMARK   46  A    between atoms: _106  and  _107
REMARK   47  A    between atoms: _107  and  _108
REMARK   48  A    between atoms: _108  and  _109
REMARK   49  A    between atoms: _109  and  _110
REMARK   50  A    between atoms: _114  and  _116
REMARK   51  A    between atoms: _116  and  _117
REMARK   52  A    between atoms: _116  and  _119
REMARK   53  A    between atoms: _119  and  _120
REMARK   54  A    between atoms: _120  and  _121
REMARK   55  A    between atoms: _123  and  _125
REMARK   56  A    between atoms: _125  and  _126
REMARK   57  A    between atoms: _125  and  _128
REMARK   58  A    between atoms: _131  and  _133
REMARK   59  A    between atoms: _133  and  _134
REMARK   60  A    between atoms: _136  and  _138
REMARK   61  A    between atoms: _138  and  _139
REMARK   62  A    between atoms: _141  and  _143
REMARK   63  A    between atoms: _143  and  _144
REMARK   64  A    between atoms: _143  and  _146
REMARK   65  A    between atoms: _146  and  _147
REMARK   66  A    between atoms: _150  and  _152
REMARK   67  A    between atoms: _152  and  _153
REMARK   68  A    between atoms: _155  and  _157
REMARK   69  A    between atoms: _157  and  _158
REMARK   70  A    between atoms: _160  and  _162
REMARK   71  A    between atoms: _162  and  _163
REMARK   72  A    between atoms: _162  and  _165
REMARK   73  A    between atoms: _165  and  _166
REMARK   74  A    between atoms: _172  and  _174
REMARK   75  A    between atoms: _174  and  _175
REMARK   76  A    between atoms: _174  and  _177
REMARK   77  A    between atoms: _177  and  _178
REMARK   78  A    between atoms: _181  and  _183
REMARK   79  A    between atoms: _183  and  _184
REMARK   80  A    between atoms: _183  and  _186
REMARK   81  A    between atoms: _189  and  _191
REMARK   82  A    between atoms: _191  and  _192
REMARK   83  A    between atoms: _191  and  _194
REMARK   84  A    between atoms: _194  and  _195
REMARK   85  A    between atoms: _199  and  _200
REMARK   86  A    between atoms: _205  and  _207
REMARK   87  A    between atoms: _207  and  _208
REMARK   88  A    between atoms: _207  and  _210
REMARK   89  A    between atoms: _210  and  _211
REMARK   90  A    between atoms: _215  and  _216
REMARK   91  A    between atoms: _221  and  _223
REMARK   92  A    between atoms: _223  and  _224
REMARK   93  A    between atoms: _223  and  _226
REMARK   94  A    between atoms: _226  and  _227
REMARK   95  A    between atoms: _230  and  _232
REMARK   96  A    between atoms: _232  and  _233
REMARK   97  A    between atoms: _232  and  _235
REMARK   98  A    between atoms: _235  and  _236
REMARK   99  A    between atoms: _241  and  _243
REMARK  100  A    between atoms: _243  and  _244
REMARK  101  A    between atoms: _243  and  _246
REMARK  102  A    between atoms: _246  and  _247
REMARK  103  A    between atoms: _250  and  _252
REMARK  104  A    between atoms: _252  and  _253
REMARK  105  A    between atoms: _252  and  _255
REMARK  106  A    between atoms: _255  and  _256
REMARK  107  A    between atoms: _259  and  _261
REMARK  108  A    between atoms: _261  and  _262
REMARK  109  A    between atoms: _264  and  _266
REMARK  110  A    between atoms: _266  and  _267
REMARK  111  A    between atoms: _266  and  _269
REMARK  112  A    between atoms: _269  and  _270
REMARK  113  A    between atoms: _270  and  _271
REMARK  114  A    between atoms: _271  and  _272
REMARK  115  A    between atoms: _281  and  _283
REMARK  116  A    between atoms: _283  and  _284
REMARK  117  A    between atoms: _283  and  _286
REMARK  118  A    between atoms: _286  and  _287
REMARK  119  A    between atoms: _292  and  _294
REMARK  120  A    between atoms: _294  and  _295
REMARK  121  A    between atoms: _294  and  _297
REMARK  122  A    between atoms: _297  and  _298
REMARK  123  A    between atoms: _298  and  _299
REMARK  124  A    between atoms: _299  and  _300
REMARK  125  A    between atoms: _309  and  _311
REMARK  126  A    between atoms: _311  and  _312
REMARK  127  A    between atoms: _311  and  _314
REMARK  128  A    between atoms: _314  and  _315
REMARK  129  A    between atoms: _318  and  _320
REMARK  130  A    between atoms: _320  and  _321
REMARK  131  A    between atoms: _320  and  _323
REMARK  132  A    between atoms: _323  and  _324
REMARK  133  A    between atoms: _327  and  _329
REMARK  134  A    between atoms: _329  and  _330
REMARK  135  A    between atoms: _329  and  _332
REMARK  136  A    between atoms: _332  and  _333
REMARK  137  A    between atoms: _336  and  _338
REMARK  138  A    between atoms: _338  and  _339
REMARK  139  A    between atoms: _338  and  _341
REMARK  140  A    between atoms: _341  and  _342
REMARK  141  A    between atoms: _345  and  _347
REMARK  142  A    between atoms: _347  and  _348
REMARK  143  A    between atoms: _350  and  _352
REMARK  144  A    between atoms: _352  and  _353
REMARK  145  A    between atoms: _356  and  _358
REMARK  146  A    between atoms: _358  and  _359
REMARK  147  A    between atoms: _358  and  _361
REMARK  148  A    between atoms: _361  and  _362
REMARK  149  A    between atoms: _365  and  _367
REMARK  150  A    between atoms: _367  and  _368
REMARK  151  A    between atoms: _367  and  _370
REMARK  152  A    between atoms: _370  and  _371
REMARK  153  A    between atoms: _374  and  _376
REMARK  154  A    between atoms: _376  and  _377
REMARK  155  A    between atoms: _376  and  _379
REMARK  156  A    between atoms: _379  and  _380
REMARK  157  A    between atoms: _383  and  _385
REMARK  158  A    between atoms: _385  and  _386
REMARK  159  A    between atoms: _385  and  _388
REMARK  160  A    between atoms: _388  and  _389
REMARK  161  A    between atoms: _392  and  _394
REMARK  162  A    between atoms: _394  and  _395
REMARK  163  A    between atoms: _394  and  _397
REMARK  164  A    between atoms: _397  and  _398
REMARK  165  A    between atoms: _398  and  _399
REMARK  166  A    between atoms: _401  and  _403
REMARK  167  A    between atoms: _403  and  _404
REMARK  168  A    between atoms: _403  and  _406
REMARK  169  A    between atoms: _409  and  _411
REMARK  170  A    between atoms: _411  and  _412
REMARK  171  A    between atoms: _414  and  _416
REMARK  172  A    between atoms: _416  and  _417
REMARK  173  A    between atoms: _419  and  _421
REMARK  174  A    between atoms: _421  and  _422
REMARK  175  A    between atoms: _421  and  _424
REMARK  176  A    between atoms: _424  and  _425
REMARK  177  A    between atoms: _428  and  _430
REMARK  178  A    between atoms: _430  and  _431
REMARK  179  A    between atoms: _433  and  _435
REMARK  180  A    between atoms: _435  and  _436
REMARK  181  A    between atoms: _438  and  _440
REMARK  182  A    between atoms: _440  and  _441
REMARK  183  A    between atoms: _440  and  _443
REMARK  184  A    between atoms: _443  and  _444
REMARK  185  A    between atoms: _447  and  _449
REMARK  186  A    between atoms: _449  and  _450
REMARK  187  A    between atoms: _449  and  _452
REMARK  188  A    between atoms: _455  and  _457
REMARK  189  A    between atoms: _457  and  _458
REMARK  190  A    between atoms: _457  and  _460
REMARK  191  A    between atoms: _460  and  _461
REMARK  192  A    between atoms: _465  and  _466
REMARK  193  A    between atoms: _471  and  _473
REMARK  194  A    between atoms: _473  and  _474
REMARK  195  A    between atoms: _473  and  _476
REMARK  196  A    between atoms: _476  and  _477
REMARK  197  A    between atoms: _481  and  _482
REMARK  198  A    between atoms: _487  and  _489
REMARK  199  A    between atoms: _489  and  _490
REMARK  200  A    between atoms: _489  and  _492
REMARK  201  A    between atoms: _492  and  _493
REMARK  202  A    between atoms: _496  and  _498
REMARK  203  A    between atoms: _498  and  _499
REMARK  204  A    between atoms: _498  and  _501
REMARK  205  A    between atoms: _501  and  _502
REMARK  206  A    between atoms: _507  and  _509
REMARK  207  A    between atoms: _509  and  _510
REMARK  208  A    between atoms: _509  and  _512
REMARK  209  A    between atoms: _512  and  _513
REMARK  210  A    between atoms: _516  and  _518
REMARK  211  A    between atoms: _518  and  _519
REMARK  212  A    between atoms: _518  and  _521
REMARK  213  A    between atoms: _521  and  _522
REMARK  214  A    between atoms: _525  and  _527
REMARK  215  A    between atoms: _527  and  _528
REMARK  216  A    between atoms: _530  and  _532
REMARK  217  A    between atoms: _532  and  _533
REMARK  218  A    between atoms: _532  and  _535
REMARK  219  A    between atoms: _535  and  _536
REMARK  220  A    between atoms: _536  and  _537
REMARK  221  A    between atoms: _537  and  _538
REMARK  222  A    between atoms: _547  and  _549
REMARK  223  A    between atoms: _549  and  _550
REMARK  224  A    between atoms: _549  and  _552
REMARK  225  A    between atoms: _552  and  _553
REMARK                            x       y       z     vdW  Elec       q    Type
REMARK                         _______ _______ _______ _____ _____    ______ ____
ROOT
ATOM      1  C   GLY A   3      -2.788  13.032  34.346  0.00  0.00    +0.243 C 
ATOM      2  N   GLY A   4      -2.023  13.490  35.308  0.00  0.00    -0.295 N 
ATOM      3  H   GLY A   4      -1.922  14.517  35.435  0.00  0.00    +0.150 HD
ATOM      4  O   GLY A   3      -2.962  11.800  34.143  0.00  0.00    -0.273 OA
ENDROOT
BRANCH   2   5
ATOM      5  CA  GLY A   4      -1.310  12.582  36.206  0.00  0.00    +0.176 C 
BRANCH   5   6
ATOM      6  C   GLY A   4      -1.684  13.017  37.634  0.00  0.00    +0.243 C 
ATOM      7  N   ILE A   5      -1.009  12.394  38.587  0.00  0.00    -0.297 N 
ATOM      8  H   ILE A   5      -0.308  11.662  38.354  0.00  0.00    +0.150 HD
ATOM      9  O   GLY A   4      -2.525  13.919  37.858  0.00  0.00    -0.273 OA
BRANCH   7  10
ATOM     10  CA  ILE A   5      -1.271  12.756  39.951  0.00  0.00    +0.149 C 
BRANCH  10  11
ATOM     11  C   ILE A   5      -1.162  14.228  40.261  0.00  0.00    +0.241 C 
ATOM     12  O   ILE A   5      -1.989  14.726  41.039  0.00  0.00    -0.273 OA
ATOM     13  N   GLY A   6      -0.212  14.951  39.694  0.00  0.00    -0.295 N 
ATOM     14  H   GLY A   6       0.464  14.498  39.046  0.00  0.00    +0.150 HD
BRANCH  13  15
ATOM     15  CA  GLY A   6      -0.101  16.419  39.977  0.00  0.00    +0.176 C 
BRANCH  15  16
ATOM     16  C   GLY A   6      -0.807  17.451  39.088  0.00  0.00    +0.243 C 
ATOM     17  O   GLY A   6      -0.705  18.682  39.303  0.00  0.00    -0.273 OA
ATOM     18  N   GLY A   7      -1.530  16.995  38.076  0.00  0.00    -0.296 N 
ATOM     19  H   GLY A   7      -1.598  15.967  37.932  0.00  0.00    +0.150 HD
BRANCH  18  20
ATOM     20  CA  GLY A   7      -2.250  17.900  37.136  0.00  0.00    +0.163 C 
BRANCH  20  21
ATOM     21  C   GLY A   7      -1.957  17.409  35.701  0.00  0.00    +0.229 C 
ATOM     22  O   GLY A   7      -1.356  16.323  35.467  0.00  0.00    -0.286 OA
ENDBRANCH  20  21
ENDBRANCH  18  20
ENDBRANCH  15  16
ENDBRANCH  13  15
ENDBRANCH  10  11
BRANCH  10  23
ATOM     23  CB  ILE A   5      -0.461  11.838  40.932  0.00  0.00    +0.027 C 
ATOM     24  CG2 ILE A   5       1.033  12.232  40.914  0.00  0.00    +0.002 C 
BRANCH  23  25
ATOM     25  CG1 ILE A   5      -1.093  11.865  42.323  0.00  0.00    +0.002 C 
ATOM     26  CD1 ILE A   5      -0.543  10.786  43.136  0.00  0.00    +0.000 C 
ENDBRANCH  23  25
ENDBRANCH  10  23
ENDBRANCH   7  10
ENDBRANCH   5   6
ENDBRANCH   2   5
BRANCH   1  27
ATOM     27  CA  GLY A   3      -3.445  14.101  33.536  0.00  0.00    +0.176 C 
BRANCH  27  29
ATOM     28  C   VAL A   2      -2.765  14.414  31.200  0.00  0.00    +0.241 C 
ATOM     29  N   GLY A   3      -3.555  13.794  32.073  0.00  0.00    -0.295 N 
ATOM     30  H   GLY A   3      -4.250  13.095  31.740  0.00  0.00    +0.150 HD
ATOM     31  O   VAL A   2      -1.868  15.213  31.503  0.00  0.00    -0.273 OA
BRANCH  28  32
ATOM     32  CA  VAL A   2      -3.025  14.091  29.721  0.00  0.00    +0.148 C 
BRANCH  32  34
ATOM     33  C   MET A   1      -3.562  15.683  28.006  0.00  0.00    +0.238 C 
ATOM     34  N   VAL A   2      -2.793  15.322  29.019  0.00  0.00    -0.297 N 
ATOM     35  H   VAL A   2      -2.008  15.939  29.312  0.00  0.00    +0.150 HD
ATOM     36  O   MET A   1      -4.487  15.001  27.594  0.00  0.00    -0.274 OA
BRANCH  33  37
ATOM     37  CA  MET A   1      -3.262  17.077  27.365  0.00  0.00    +0.146 C 
BRANCH  37  38
ATOM     38  N   MET A   1      -3.610  16.948  25.950  0.00  0.00    -0.238 NA
ATOM     39  H   MET A   1      -4.581  16.680  25.693  0.00  0.00    +0.142 HD
ENDBRANCH  37  38
BRANCH  37  40
ATOM     40  CB  MET A   1      -4.112  18.160  28.002  0.00  0.00    +0.038 C 
BRANCH  40  41
ATOM     41  CG  MET A   1      -3.391  19.517  27.694  0.00  0.00    +0.060 C 
BRANCH  41  42
ATOM     42  SD  MET A   1      -4.086  20.822  28.626  0.00  0.00    -0.139 S 
ATOM     43  CE  MET A   1      -3.236  20.604  30.166  0.00  0.00    +0.069 C 
ENDBRANCH  41  42
ENDBRANCH  40  41
ENDBRANCH  37  40
ENDBRANCH  33  37
ENDBRANCH  32  34
BRANCH  32  44
ATOM     44  CB  VAL A   2      -2.121  12.966  29.229  0.00  0.00    +0.027 C 
ATOM     45  CG2 VAL A   2      -2.611  11.647  29.767  0.00  0.00    +0.002 C 
ATOM     46  CG1 VAL A   2      -0.569  13.190  29.580  0.00  0.00    +0.002 C 
ENDBRANCH  32  44
ENDBRANCH  28  32
ENDBRANCH  27  29
ENDBRANCH   1  27
TORSDOF 20
REMARK  Name = ../refined-set-2016/3s56/3s56_pocket.pdb
REMARK  225 active torsions:
REMARK  status: ('A' for Active; 'I' for Inactive)
REMARK    1  A    between atoms: _1  and  _3
REMARK    2  A    between atoms: _3  and  _4
REMARK    3  A    between atoms: _3  and  _6
REMARK    4  A    between atoms: _6  and  _7
REMARK    5  A    between atoms: _7  and  _8
REMARK    6  A    between atoms: _8  and  _9
REMARK    7  A    between atoms: _18  and  _20
REMARK    8  A    between atoms: _20  and  _21
REMARK    9  A    between atoms: _20  and  _23
REMARK   10  A    between atoms: _23  and  _24
REMARK   11  A    between atoms: _27  and  _29
REMARK   12  A    between atoms: _29  and  _30
REMARK   13  A    between atoms: _29  and  _32
REMARK   14  A    between atoms: _32  and  _33
REMARK   15  A    between atoms: _36  and  _38
REMARK   16  A    between atoms: _38  and  _39
REMARK   17  A    between atoms: _38  and  _41
REMARK   18  A    between atoms: _41  and  _42
REMARK   19  A    between atoms: _45  and  _47
REMARK   20  A    between atoms: _47  and  _48
REMARK   21  A    between atoms: _47  and  _50
REMARK   22  A    between atoms: _50  and  _51
REMARK   23  A    between atoms: _54  and  _56
REMARK   24  A    between atoms: _56  and  _57
REMARK   25  A    between atoms: _59  and  _61
REMARK   26  A    between atoms: _61  and  _62
REMARK   27  A    between atoms: _65  and  _67
REMARK   28  A    between atoms: _67  and  _68
REMARK   29  A    between atoms: _67  and  _70
REMARK   30  A    between atoms: _70  and  _71
REMARK   31  A    between atoms: _74  and  _76
REMARK   32  A    between atoms: _76  and  _77
REMARK   33  A    between atoms: _76  and  _79
REMARK   34  A    between atoms: _79  and  _80
REMARK   35  A    between atoms: _83  and  _85
REMARK   36  A    between atoms: _85  and  _86
REMARK   37  A    between atoms: _85  and  _88
REMARK   38  A    between atoms: _88  and  _89
REMARK   39  A    between atoms: _92  and  _94
REMARK   40  A    between atoms: _94  and  _95
REMARK   41  A    between atoms: _94  and  _97
REMARK   42  A    between atoms: _97  and  _98
REMARK   43  A    between atoms: _101  and  _103
REMARK   44  A    between atoms: _103  and  _104
REMARK   45  A    between atoms: _103  and  _106
REMARK   46  A    between atoms: _106  and  _107
REMARK   47  A    between atoms: _107  and  _108
REMARK   48  A    between atoms: _108  and  _109
REMARK   49  A    between atoms: _109  and  _110
REMARK   50  A    between atoms: _114  and  _116
REMARK   51  A    between atoms: _116  and  _117
REMARK   52  A    between atoms: _116  and  _119
REMARK   53  A    between atoms: _119  and  _120
REMARK   54  A    between atoms: _120  and  _121
REMARK   55  A    between atoms: _123  and  _125
REMARK   56  A    between atoms: _125  and  _126
REMARK   57  A    between atoms: _125  and  _128
REMARK   58  A    between atoms: _131  and  _133
REMARK   59  A    between atoms: _133  and  _134
REMARK   60  A    between atoms: _136  and  _138
REMARK   61  A    between atoms: _138  and  _139
REMARK   62  A    between atoms: _141  and  _143
REMARK   63  A    between atoms: _143  and  _144
REMARK   64  A    between atoms: _143  and  _146
REMARK   65  A    between atoms: _146  and  _147
REMARK   66  A    between atoms: _150  and  _152
REMARK   67  A    between atoms: _152  and  _153
REMARK   68  A    between atoms: _155  and  _157
REMARK   69  A    between atoms: _157  and  _158
REMARK   70  A    between atoms: _160  and  _162
REMARK   71  A    between atoms: _162  and  _163
REMARK   72  A    between atoms: _162  and  _165
REMARK   73  A    between atoms: _165  and  _166
REMARK   74  A    between atoms: _172  and  _174
REMARK   75  A    between atoms: _174  and  _175
REMARK   76  A    between atoms: _174  and  _177
REMARK   77  A    between atoms: _177  and  _178
REMARK   78  A    between atoms: _181  and  _183
REMARK   79  A    between atoms: _183  and  _184
REMARK   80  A    between atoms: _183  and  _186
REMARK   81  A    between atoms: _189  and  _191
REMARK   82  A    between atoms: _191  and  _192
REMARK   83  A    between atoms: _191  and  _194
REMARK   84  A    between atoms: _194  and  _195
REMARK   85  A    between atoms: _199  and  _200
REMARK   86  A    between atoms: _205  and  _207
REMARK   87  A    between atoms: _207  and  _208
REMARK   88  A    between atoms: _207  and  _210
REMARK   89  A    between atoms: _210  and  _211
REMARK   90  A    between atoms: _215  and  _216
REMARK   91  A    between atoms: _221  and  _223
REMARK   92  A    between atoms: _223  and  _224
REMARK   93  A    between atoms: _223  and  _226
REMARK   94  A    between atoms: _226  and  _227
REMARK   95  A    between atoms: _230  and  _232
REMARK   96  A    between atoms: _232  and  _233
REMARK   97  A    between atoms: _232  and  _235
REMARK   98  A    between atoms: _235  and  _236
REMARK   99  A    between atoms: _241  and  _243
REMARK  100  A    between atoms: _243  and  _244
REMARK  101  A    between atoms: _243  and  _246
REMARK  102  A    between atoms: _246  and  _247
REMARK  103  A    between atoms: _250  and  _252
REMARK  104  A    between atoms: _252  and  _253
REMARK  105  A    between atoms: _252  and  _255
REMARK  106  A    between atoms: _255  and  _256
REMARK  107  A    between atoms: _259  and  _261
REMARK  108  A    between atoms: _261  and  _262
REMARK  109  A    between atoms: _264  and  _266
REMARK  110  A    between atoms: _266  and  _267
REMARK  111  A    between atoms: _266  and  _269
REMARK  112  A    between atoms: _269  and  _270
REMARK  113  A    between atoms: _270  and  _271
REMARK  114  A    between atoms: _271  and  _272
REMARK  115  A    between atoms: _281  and  _283
REMARK  116  A    between atoms: _283  and  _284
REMARK  117  A    between atoms: _283  and  _286
REMARK  118  A    between atoms: _286  and  _287
REMARK  119  A    between atoms: _292  and  _294
REMARK  120  A    between atoms: _294  and  _295
REMARK  121  A    between atoms: _294  and  _297
REMARK  122  A    between atoms: _297  and  _298
REMARK  123  A    between atoms: _298  and  _299
REMARK  124  A    between atoms: _299  and  _300
REMARK  125  A    between atoms: _309  and  _311
REMARK  126  A    between atoms: _311  and  _312
REMARK  127  A    between atoms: _311  and  _314
REMARK  128  A    between atoms: _314  and  _315
REMARK  129  A    between atoms: _318  and  _320
REMARK  130  A    between atoms: _320  and  _321
REMARK  131  A    between atoms: _320  and  _323
REMARK  132  A    between atoms: _323  and  _324
REMARK  133  A    between atoms: _327  and  _329
REMARK  134  A    between atoms: _329  and  _330
REMARK  135  A    between atoms: _329  and  _332
REMARK  136  A    between atoms: _332  and  _333
REMARK  137  A    between atoms: _336  and  _338
REMARK  138  A    between atoms: _338  and  _339
REMARK  139  A    between atoms: _338  and  _341
REMARK  140  A    between atoms: _341  and  _342
REMARK  141  A    between atoms: _345  and  _347
REMARK  142  A    between atoms: _347  and  _348
REMARK  143  A    between atoms: _350  and  _352
REMARK  144  A    between atoms: _352  and  _353
REMARK  145  A    between atoms: _356  and  _358
REMARK  146  A    between atoms: _358  and  _359
REMARK  147  A    between atoms: _358  and  _361
REMARK  148  A    between atoms: _361  and  _362
REMARK  149  A    between atoms: _365  and  _367
REMARK  150  A    between atoms: _367  and  _368
REMARK  151  A    between atoms: _367  and  _370
REMARK  152  A    between atoms: _370  and  _371
REMARK  153  A    between atoms: _374  and  _376
REMARK  154  A    between atoms: _376  and  _377
REMARK  155  A    between atoms: _376  and  _379
REMARK  156  A    between atoms: _379  and  _380
REMARK  157  A    between atoms: _383  and  _385
REMARK  158  A    between atoms: _385  and  _386
REMARK  159  A    between atoms: _385  and  _388
REMARK  160  A    between atoms: _388  and  _389
REMARK  161  A    between atoms: _392  and  _394
REMARK  162  A    between atoms: _394  and  _395
REMARK  163  A    between atoms: _394  and  _397
REMARK  164  A    between atoms: _397  and  _398
REMARK  165  A    between atoms: _398  and  _399
REMARK  166  A    between atoms: _401  and  _403
REMARK  167  A    between atoms: _403  and  _404
REMARK  168  A    between atoms: _403  and  _406
REMARK  169  A    between atoms: _409  and  _411
REMARK  170  A    between atoms: _411  and  _412
REMARK  171  A    between atoms: _414  and  _416
REMARK  172  A    between atoms: _416  and  _417
REMARK  173  A    between atoms: _419  and  _421
REMARK  174  A    between atoms: _421  and  _422
REMARK  175  A    between atoms: _421  and  _424
REMARK  176  A    between atoms: _424  and  _425
REMARK  177  A    between atoms: _428  and  _430
REMARK  178  A    between atoms: _430  and  _431
REMARK  179  A    between atoms: _433  and  _435
REMARK  180  A    between atoms: _435  and  _436
REMARK  181  A    between atoms: _438  and  _440
REMARK  182  A    between atoms: _440  and  _441
REMARK  183  A    between atoms: _440  and  _443
REMARK  184  A    between atoms: _443  and  _444
REMARK  185  A    between atoms: _447  and  _449
REMARK  186  A    between atoms: _449  and  _450
REMARK  187  A    between atoms: _449  and  _452
REMARK  188  A    between atoms: _455  and  _457
REMARK  189  A    between atoms: _457  and  _458
REMARK  190  A    between atoms: _457  and  _460
REMARK  191  A    between atoms: _460  and  _461
REMARK  192  A    between atoms: _465  and  _466
REMARK  193  A    between atoms: _471  and  _473
REMARK  194  A    between atoms: _473  and  _474
REMARK  195  A    between atoms: _473  and  _476
REMARK  196  A    between atoms: _476  and  _477
REMARK  197  A    between atoms: _481  and  _482
REMARK  198  A    between atoms: _487  and  _489
REMARK  199  A    between atoms: _489  and  _490
REMARK  200  A    between atoms: _489  and  _492
REMARK  201  A    between atoms: _492  and  _493
REMARK  202  A    between atoms: _496  and  _498
REMARK  203  A    between atoms: _498  and  _499
REMARK  204  A    between atoms: _498  and  _501
REMARK  205  A    between atoms: _501  and  _502
REMARK  206  A    between atoms: _507  and  _509
REMARK  207  A    between atoms: _509  and  _510
REMARK  208  A    between atoms: _509  and  _512
REMARK  209  A    between atoms: _512  and  _513
REMARK  210  A    between atoms: _516  and  _518
REMARK  211  A    between atoms: _518  and  _519
REMARK  212  A    between atoms: _518  and  _521
REMARK  213  A    between atoms: _521  and  _522
REMARK  214  A    between atoms: _525  and  _527
REMARK  215  A    between atoms: _527  and  _528
REMARK  216  A    between atoms: _530  and  _532
REMARK  217  A    between atoms: _532  and  _533
REMARK  218  A    between atoms: _532  and  _535
REMARK  219  A    between atoms: _535  and  _536
REMARK  220  A    between atoms: _536  and  _537
REMARK  221  A    between atoms: _537  and  _538
REMARK  222  A    between atoms: _547  and  _549
REMARK  223  A    between atoms: _549  and  _550
REMARK  224  A    between atoms: _549  and  _552
REMARK  225  A    between atoms: _552  and  _553
REMARK                            x       y       z     vdW  Elec       q    Type
REMARK                         _______ _______ _______ _____ _____    ______ ____
ROOT
ATOM      1  CA  ILE A   1       0.627  18.093  30.983  0.00  0.00    +0.133 C 
ENDROOT
BRANCH   1   2
ATOM      2  N   ILE A   1      -0.534  17.642  31.683  0.00  0.00    -0.239 NA
ATOM      3  H   ILE A   1      -0.966  16.735  31.415  0.00  0.00    +0.142 HD
ENDBRANCH   1   2
BRANCH   1   4
ATOM      4  CB  ILE A   1       1.902  17.200  31.118  0.00  0.00    +0.023 C 
ATOM      5  CG2 ILE A   1       2.509  17.320  32.614  0.00  0.00    +0.002 C 
BRANCH   4   6
ATOM      6  CG1 ILE A   1       1.674  15.696  30.745  0.00  0.00    +0.002 C 
ATOM      7  CD1 ILE A   1       3.054  14.964  30.539  0.00  0.00    +0.000 C 
ENDBRANCH   4   6
ENDBRANCH   1   4
BRANCH   1   8
ATOM      8  C   ILE A   1       0.286  18.201  29.476  0.00  0.00    +0.224 C 
ATOM      9  O   ILE A   1      -0.602  17.433  28.983  0.00  0.00    -0.287 OA
ENDBRANCH   1   8
TORSDOF 4
REMARK  Name = ../refined-set-2016/3s56/3s56_pocket.pdb
REMARK  225 active torsions:
REMARK  status: ('A' for Active; 'I' for Inactive)
REMARK    1  A    between atoms: _1  and  _3
REMARK    2  A    between atoms: _3  and  _4
REMARK    3  A    between atoms: _3  and  _6
REMARK    4  A    between atoms: _6  and  _7
REMARK    5  A    between atoms: _7  and  _8
REMARK    6  A    between atoms: _8  and  _9
REMARK    7  A    between atoms: _18  and  _20
REMARK    8  A    between atoms: _20  and  _21
REMARK    9  A    between atoms: _20  and  _23
REMARK   10  A    between atoms: _23  and  _24
REMARK   11  A    between atoms: _27  and  _29
REMARK   12  A    between atoms: _29  and  _30
REMARK   13  A    between atoms: _29  and  _32
REMARK   14  A    between atoms: _32  and  _33
REMARK   15  A    between atoms: _36  and  _38
REMARK   16  A    between atoms: _38  and  _39
REMARK   17  A    between atoms: _38  and  _41
REMARK   18  A    between atoms: _41  and  _42
REMARK   19  A    between atoms: _45  and  _47
REMARK   20  A    between atoms: _47  and  _48
REMARK   21  A    between atoms: _47  and  _50
REMARK   22  A    between atoms: _50  and  _51
REMARK   23  A    between atoms: _54  and  _56
REMARK   24  A    between atoms: _56  and  _57
REMARK   25  A    between atoms: _59  and  _61
REMARK   26  A    between atoms: _61  and  _62
REMARK   27  A    between atoms: _65  and  _67
REMARK   28  A    between atoms: _67  and  _68
REMARK   29  A    between atoms: _67  and  _70
REMARK   30  A    between atoms: _70  and  _71
REMARK   31  A    between atoms: _74  and  _76
REMARK   32  A    between atoms: _76  and  _77
REMARK   33  A    between atoms: _76  and  _79
REMARK   34  A    between atoms: _79  and  _80
REMARK   35  A    between atoms: _83  and  _85
REMARK   36  A    between atoms: _85  and  _86
REMARK   37  A    between atoms: _85  and  _88
REMARK   38  A    between atoms: _88  and  _89
REMARK   39  A    between atoms: _92  and  _94
REMARK   40  A    between atoms: _94  and  _95
REMARK   41  A    between atoms: _94  and  _97
REMARK   42  A    between atoms: _97  and  _98
REMARK   43  A    between atoms: _101  and  _103
REMARK   44  A    between atoms: _103  and  _104
REMARK   45  A    between atoms: _103  and  _106
REMARK   46  A    between atoms: _106  and  _107
REMARK   47  A    between atoms: _107  and  _108
REMARK   48  A    between atoms: _108  and  _109
REMARK   49  A    between atoms: _109  and  _110
REMARK   50  A    between atoms: _114  and  _116
REMARK   51  A    between atoms: _116  and  _117
REMARK   52  A    between atoms: _116  and  _119
REMARK   53  A    between atoms: _119  and  _120
REMARK   54  A    between atoms: _120  and  _121
REMARK   55  A    between atoms: _123  and  _125
REMARK   56  A    between atoms: _125  and  _126
REMARK   57  A    between atoms: _125  and  _128
REMARK   58  A    between atoms: _131  and  _133
REMARK   59  A    between atoms: _133  and  _134
REMARK   60  A    between atoms: _136  and  _138
REMARK   61  A    between atoms: _138  and  _139
REMARK   62  A    between atoms: _141  and  _143
REMARK   63  A    between atoms: _143  and  _144
REMARK   64  A    between atoms: _143  and  _146
REMARK   65  A    between atoms: _146  and  _147
REMARK   66  A    between atoms: _150  and  _152
REMARK   67  A    between atoms: _152  and  _153
REMARK   68  A    between atoms: _155  and  _157
REMARK   69  A    between atoms: _157  and  _158
REMARK   70  A    between atoms: _160  and  _162
REMARK   71  A    between atoms: _162  and  _163
REMARK   72  A    between atoms: _162  and  _165
REMARK   73  A    between atoms: _165  and  _166
REMARK   74  A    between atoms: _172  and  _174
REMARK   75  A    between atoms: _174  and  _175
REMARK   76  A    between atoms: _174  and  _177
REMARK   77  A    between atoms: _177  and  _178
REMARK   78  A    between atoms: _181  and  _183
REMARK   79  A    between atoms: _183  and  _184
REMARK   80  A    between atoms: _183  and  _186
REMARK   81  A    between atoms: _189  and  _191
REMARK   82  A    between atoms: _191  and  _192
REMARK   83  A    between atoms: _191  and  _194
REMARK   84  A    between atoms: _194  and  _195
REMARK   85  A    between atoms: _199  and  _200
REMARK   86  A    between atoms: _205  and  _207
REMARK   87  A    between atoms: _207  and  _208
REMARK   88  A    between atoms: _207  and  _210
REMARK   89  A    between atoms: _210  and  _211
REMARK   90  A    between atoms: _215  and  _216
REMARK   91  A    between atoms: _221  and  _223
REMARK   92  A    between atoms: _223  and  _224
REMARK   93  A    between atoms: _223  and  _226
REMARK   94  A    between atoms: _226  and  _227
REMARK   95  A    between atoms: _230  and  _232
REMARK   96  A    between atoms: _232  and  _233
REMARK   97  A    between atoms: _232  and  _235
REMARK   98  A    between atoms: _235  and  _236
REMARK   99  A    between atoms: _241  and  _243
REMARK  100  A    between atoms: _243  and  _244
REMARK  101  A    between atoms: _243  and  _246
REMARK  102  A    between atoms: _246  and  _247
REMARK  103  A    between atoms: _250  and  _252
REMARK  104  A    between atoms: _252  and  _253
REMARK  105  A    between atoms: _252  and  _255
REMARK  106  A    between atoms: _255  and  _256
REMARK  107  A    between atoms: _259  and  _261
REMARK  108  A    between atoms: _261  and  _262
REMARK  109  A    between atoms: _264  and  _266
REMARK  110  A    between atoms: _266  and  _267
REMARK  111  A    between atoms: _266  and  _269
REMARK  112  A    between atoms: _269  and  _270
REMARK  113  A    between atoms: _270  and  _271
REMARK  114  A    between atoms: _271  and  _272
REMARK  115  A    between atoms: _281  and  _283
REMARK  116  A    between atoms: _283  and  _284
REMARK  117  A    between atoms: _283  and  _286
REMARK  118  A    between atoms: _286  and  _287
REMARK  119  A    between atoms: _292  and  _294
REMARK  120  A    between atoms: _294  and  _295
REMARK  121  A    between atoms: _294  and  _297
REMARK  122  A    between atoms: _297  and  _298
REMARK  123  A    between atoms: _298  and  _299
REMARK  124  A    between atoms: _299  and  _300
REMARK  125  A    between atoms: _309  and  _311
REMARK  126  A    between atoms: _311  and  _312
REMARK  127  A    between atoms: _311  and  _314
REMARK  128  A    between atoms: _314  and  _315
REMARK  129  A    between atoms: _318  and  _320
REMARK  130  A    between atoms: _320  and  _321
REMARK  131  A    between atoms: _320  and  _323
REMARK  132  A    between atoms: _323  and  _324
REMARK  133  A    between atoms: _327  and  _329
REMARK  134  A    between atoms: _329  and  _330
REMARK  135  A    between atoms: _329  and  _332
REMARK  136  A    between atoms: _332  and  _333
REMARK  137  A    between atoms: _336  and  _338
REMARK  138  A    between atoms: _338  and  _339
REMARK  139  A    between atoms: _338  and  _341
REMARK  140  A    between atoms: _341  and  _342
REMARK  141  A    between atoms: _345  and  _347
REMARK  142  A    between atoms: _347  and  _348
REMARK  143  A    between atoms: _350  and  _352
REMARK  144  A    between atoms: _352  and  _353
REMARK  145  A    between atoms: _356  and  _358
REMARK  146  A    between atoms: _358  and  _359
REMARK  147  A    between atoms: _358  and  _361
REMARK  148  A    between atoms: _361  and  _362
REMARK  149  A    between atoms: _365  and  _367
REMARK  150  A    between atoms: _367  and  _368
REMARK  151  A    between atoms: _367  and  _370
REMARK  152  A    between atoms: _370  and  _371
REMARK  153  A    between atoms: _374  and  _376
REMARK  154  A    between atoms: _376  and  _377
REMARK  155  A    between atoms: _376  and  _379
REMARK  156  A    between atoms: _379  and  _380
REMARK  157  A    between atoms: _383  and  _385
REMARK  158  A    between atoms: _385  and  _386
REMARK  159  A    between atoms: _385  and  _388
REMARK  160  A    between atoms: _388  and  _389
REMARK  161  A    between atoms: _392  and  _394
REMARK  162  A    between atoms: _394  and  _395
REMARK  163  A    between atoms: _394  and  _397
REMARK  164  A    between atoms: _397  and  _398
REMARK  165  A    between atoms: _398  and  _399
REMARK  166  A    between atoms: _401  and  _403
REMARK  167  A    between atoms: _403  and  _404
REMARK  168  A    between atoms: _403  and  _406
REMARK  169  A    between atoms: _409  and  _411
REMARK  170  A    between atoms: _411  and  _412
REMARK  171  A    between atoms: _414  and  _416
REMARK  172  A    between atoms: _416  and  _417
REMARK  173  A    between atoms: _419  and  _421
REMARK  174  A    between atoms: _421  and  _422
REMARK  175  A    between atoms: _421  and  _424
REMARK  176  A    between atoms: _424  and  _425
REMARK  177  A    between atoms: _428  and  _430
REMARK  178  A    between atoms: _430  and  _431
REMARK  179  A    between atoms: _433  and  _435
REMARK  180  A    between atoms: _435  and  _436
REMARK  181  A    between atoms: _438  and  _440
REMARK  182  A    between atoms: _440  and  _441
REMARK  183  A    between atoms: _440  and  _443
REMARK  184  A    between atoms: _443  and  _444
REMARK  185  A    between atoms: _447  and  _449
REMARK  186  A    between atoms: _449  and  _450
REMARK  187  A    between atoms: _449  and  _452
REMARK  188  A    between atoms: _455  and  _457
REMARK  189  A    between atoms: _457  and  _458
REMARK  190  A    between atoms: _457  and  _460
REMARK  191  A    between atoms: _460  and  _461
REMARK  192  A    between atoms: _465  and  _466
REMARK  193  A    between atoms: _471  and  _473
REMARK  194  A    between atoms: _473  and  _474
REMARK  195  A    between atoms: _473  and  _476
REMARK  196  A    between atoms: _476  and  _477
REMARK  197  A    between atoms: _481  and  _482
REMARK  198  A    between atoms: _487  and  _489
REMARK  199  A    between atoms: _489  and  _490
REMARK  200  A    between atoms: _489  and  _492
REMARK  201  A    between atoms: _492  and  _493
REMARK  202  A    between atoms: _496  and  _498
REMARK  203  A    between atoms: _498  and  _499
REMARK  204  A    between atoms: _498  and  _501
REMARK  205  A    between atoms: _501  and  _502
REMARK  206  A    between atoms: _507  and  _509
REMARK  207  A    between atoms: _509  and  _510
REMARK  208  A    between atoms: _509  and  _512
REMARK  209  A    between atoms: _512  and  _513
REMARK  210  A    between atoms: _516  and  _518
REMARK  211  A    between atoms: _518  and  _519
REMARK  212  A    between atoms: _518  and  _521
REMARK  213  A    between atoms: _521  and  _522
REMARK  214  A    between atoms: _525  and  _527
REMARK  215  A    between atoms: _527  and  _528
REMARK  216  A    between atoms: _530  and  _532
REMARK  217  A    between atoms: _532  and  _533
REMARK  218  A    between atoms: _532  and  _535
REMARK  219  A    between atoms: _535  and  _536
REMARK  220  A    between atoms: _536  and  _537
REMARK  221  A    between atoms: _537  and  _538
REMARK  222  A    between atoms: _547  and  _549
REMARK  223  A    between atoms: _549  and  _550
REMARK  224  A    between atoms: _549  and  _552
REMARK  225  A    between atoms: _552  and  _553
REMARK                            x       y       z     vdW  Elec       q    Type
REMARK                         _______ _______ _______ _____ _____    ______ ____
ROOT
ATOM      1  CA  VAL A   1       2.063  16.300  25.000  0.00  0.00    +0.133 C 
ENDROOT
BRANCH   1   2
ATOM      2  CB  VAL A   1       1.787  14.803  25.482  0.00  0.00    +0.023 C 
ATOM      3  CG2 VAL A   1       2.061  14.651  26.975  0.00  0.00    +0.002 C 
ATOM      4  CG1 VAL A   1       0.275  14.435  25.254  0.00  0.00    +0.002 C 
ENDBRANCH   1   2
BRANCH   1   5
ATOM      5  N   VAL A   1       1.210  17.273  25.693  0.00  0.00    -0.239 NA
ATOM      6  H   VAL A   1       0.208  17.388  25.437  0.00  0.00    +0.142 HD
ENDBRANCH   1   5
BRANCH   1   7
ATOM      7  C   VAL A   1       1.812  16.293  23.488  0.00  0.00    +0.224 C 
ATOM      8  O   VAL A   1       0.746  16.734  23.067  0.00  0.00    -0.287 OA
ENDBRANCH   1   7
TORSDOF 3
REMARK  Name = ../refined-set-2016/3s56/3s56_pocket.pdb
REMARK  225 active torsions:
REMARK  status: ('A' for Active; 'I' for Inactive)
REMARK    1  A    between atoms: _1  and  _3
REMARK    2  A    between atoms: _3  and  _4
REMARK    3  A    between atoms: _3  and  _6
REMARK    4  A    between atoms: _6  and  _7
REMARK    5  A    between atoms: _7  and  _8
REMARK    6  A    between atoms: _8  and  _9
REMARK    7  A    between atoms: _18  and  _20
REMARK    8  A    between atoms: _20  and  _21
REMARK    9  A    between atoms: _20  and  _23
REMARK   10  A    between atoms: _23  and  _24
REMARK   11  A    between atoms: _27  and  _29
REMARK   12  A    between atoms: _29  and  _30
REMARK   13  A    between atoms: _29  and  _32
REMARK   14  A    between atoms: _32  and  _33
REMARK   15  A    between atoms: _36  and  _38
REMARK   16  A    between atoms: _38  and  _39
REMARK   17  A    between atoms: _38  and  _41
REMARK   18  A    between atoms: _41  and  _42
REMARK   19  A    between atoms: _45  and  _47
REMARK   20  A    between atoms: _47  and  _48
REMARK   21  A    between atoms: _47  and  _50
REMARK   22  A    between atoms: _50  and  _51
REMARK   23  A    between atoms: _54  and  _56
REMARK   24  A    between atoms: _56  and  _57
REMARK   25  A    between atoms: _59  and  _61
REMARK   26  A    between atoms: _61  and  _62
REMARK   27  A    between atoms: _65  and  _67
REMARK   28  A    between atoms: _67  and  _68
REMARK   29  A    between atoms: _67  and  _70
REMARK   30  A    between atoms: _70  and  _71
REMARK   31  A    between atoms: _74  and  _76
REMARK   32  A    between atoms: _76  and  _77
REMARK   33  A    between atoms: _76  and  _79
REMARK   34  A    between atoms: _79  and  _80
REMARK   35  A    between atoms: _83  and  _85
REMARK   36  A    between atoms: _85  and  _86
REMARK   37  A    between atoms: _85  and  _88
REMARK   38  A    between atoms: _88  and  _89
REMARK   39  A    between atoms: _92  and  _94
REMARK   40  A    between atoms: _94  and  _95
REMARK   41  A    between atoms: _94  and  _97
REMARK   42  A    between atoms: _97  and  _98
REMARK   43  A    between atoms: _101  and  _103
REMARK   44  A    between atoms: _103  and  _104
REMARK   45  A    between atoms: _103  and  _106
REMARK   46  A    between atoms: _106  and  _107
REMARK   47  A    between atoms: _107  and  _108
REMARK   48  A    between atoms: _108  and  _109
REMARK   49  A    between atoms: _109  and  _110
REMARK   50  A    between atoms: _114  and  _116
REMARK   51  A    between atoms: _116  and  _117
REMARK   52  A    between atoms: _116  and  _119
REMARK   53  A    between atoms: _119  and  _120
REMARK   54  A    between atoms: _120  and  _121
REMARK   55  A    between atoms: _123  and  _125
REMARK   56  A    between atoms: _125  and  _126
REMARK   57  A    between atoms: _125  and  _128
REMARK   58  A    between atoms: _131  and  _133
REMARK   59  A    between atoms: _133  and  _134
REMARK   60  A    between atoms: _136  and  _138
REMARK   61  A    between atoms: _138  and  _139
REMARK   62  A    between atoms: _141  and  _143
REMARK   63  A    between atoms: _143  and  _144
REMARK   64  A    between atoms: _143  and  _146
REMARK   65  A    between atoms: _146  and  _147
REMARK   66  A    between atoms: _150  and  _152
REMARK   67  A    between atoms: _152  and  _153
REMARK   68  A    between atoms: _155  and  _157
REMARK   69  A    between atoms: _157  and  _158
REMARK   70  A    between atoms: _160  and  _162
REMARK   71  A    between atoms: _162  and  _163
REMARK   72  A    between atoms: _162  and  _165
REMARK   73  A    between atoms: _165  and  _166
REMARK   74  A    between atoms: _172  and  _174
REMARK   75  A    between atoms: _174  and  _175
REMARK   76  A    between atoms: _174  and  _177
REMARK   77  A    between atoms: _177  and  _178
REMARK   78  A    between atoms: _181  and  _183
REMARK   79  A    between atoms: _183  and  _184
REMARK   80  A    between atoms: _183  and  _186
REMARK   81  A    between atoms: _189  and  _191
REMARK   82  A    between atoms: _191  and  _192
REMARK   83  A    between atoms: _191  and  _194
REMARK   84  A    between atoms: _194  and  _195
REMARK   85  A    between atoms: _199  and  _200
REMARK   86  A    between atoms: _205  and  _207
REMARK   87  A    between atoms: _207  and  _208
REMARK   88  A    between atoms: _207  and  _210
REMARK   89  A    between atoms: _210  and  _211
REMARK   90  A    between atoms: _215  and  _216
REMARK   91  A    between atoms: _221  and  _223
REMARK   92  A    between atoms: _223  and  _224
REMARK   93  A    between atoms: _223  and  _226
REMARK   94  A    between atoms: _226  and  _227
REMARK   95  A    between atoms: _230  and  _232
REMARK   96  A    between atoms: _232  and  _233
REMARK   97  A    between atoms: _232  and  _235
REMARK   98  A    between atoms: _235  and  _236
REMARK   99  A    between atoms: _241  and  _243
REMARK  100  A    between atoms: _243  and  _244
REMARK  101  A    between atoms: _243  and  _246
REMARK  102  A    between atoms: _246  and  _247
REMARK  103  A    between atoms: _250  and  _252
REMARK  104  A    between atoms: _252  and  _253
REMARK  105  A    between atoms: _252  and  _255
REMARK  106  A    between atoms: _255  and  _256
REMARK  107  A    between atoms: _259  and  _261
REMARK  108  A    between atoms: _261  and  _262
REMARK  109  A    between atoms: _264  and  _266
REMARK  110  A    between atoms: _266  and  _267
REMARK  111  A    between atoms: _266  and  _269
REMARK  112  A    between atoms: _269  and  _270
REMARK  113  A    between atoms: _270  and  _271
REMARK  114  A    between atoms: _271  and  _272
REMARK  115  A    between atoms: _281  and  _283
REMARK  116  A    between atoms: _283  and  _284
REMARK  117  A    between atoms: _283  and  _286
REMARK  118  A    between atoms: _286  and  _287
REMARK  119  A    between atoms: _292  and  _294
REMARK  120  A    between atoms: _294  and  _295
REMARK  121  A    between atoms: _294  and  _297
REMARK  122  A    between atoms: _297  and  _298
REMARK  123  A    between atoms: _298  and  _299
REMARK  124  A    between atoms: _299  and  _300
REMARK  125  A    between atoms: _309  and  _311
REMARK  126  A    between atoms: _311  and  _312
REMARK  127  A    between atoms: _311  and  _314
REMARK  128  A    between atoms: _314  and  _315
REMARK  129  A    between atoms: _318  and  _320
REMARK  130  A    between atoms: _320  and  _321
REMARK  131  A    between atoms: _320  and  _323
REMARK  132  A    between atoms: _323  and  _324
REMARK  133  A    between atoms: _327  and  _329
REMARK  134  A    between atoms: _329  and  _330
REMARK  135  A    between atoms: _329  and  _332
REMARK  136  A    between atoms: _332  and  _333
REMARK  137  A    between atoms: _336  and  _338
REMARK  138  A    between atoms: _338  and  _339
REMARK  139  A    between atoms: _338  and  _341
REMARK  140  A    between atoms: _341  and  _342
REMARK  141  A    between atoms: _345  and  _347
REMARK  142  A    between atoms: _347  and  _348
REMARK  143  A    between atoms: _350  and  _352
REMARK  144  A    between atoms: _352  and  _353
REMARK  145  A    between atoms: _356  and  _358
REMARK  146  A    between atoms: _358  and  _359
REMARK  147  A    between atoms: _358  and  _361
REMARK  148  A    between atoms: _361  and  _362
REMARK  149  A    between atoms: _365  and  _367
REMARK  150  A    between atoms: _367  and  _368
REMARK  151  A    between atoms: _367  and  _370
REMARK  152  A    between atoms: _370  and  _371
REMARK  153  A    between atoms: _374  and  _376
REMARK  154  A    between atoms: _376  and  _377
REMARK  155  A    between atoms: _376  and  _379
REMARK  156  A    between atoms: _379  and  _380
REMARK  157  A    between atoms: _383  and  _385
REMARK  158  A    between atoms: _385  and  _386
REMARK  159  A    between atoms: _385  and  _388
REMARK  160  A    between atoms: _388  and  _389
REMARK  161  A    between atoms: _392  and  _394
REMARK  162  A    between atoms: _394  and  _395
REMARK  163  A    between atoms: _394  and  _397
REMARK  164  A    between atoms: _397  and  _398
REMARK  165  A    between atoms: _398  and  _399
REMARK  166  A    between atoms: _401  and  _403
REMARK  167  A    between atoms: _403  and  _404
REMARK  168  A    between atoms: _403  and  _406
REMARK  169  A    between atoms: _409  and  _411
REMARK  170  A    between atoms: _411  and  _412
REMARK  171  A    between atoms: _414  and  _416
REMARK  172  A    between atoms: _416  and  _417
REMARK  173  A    between atoms: _419  and  _421
REMARK  174  A    between atoms: _421  and  _422
REMARK  175  A    between atoms: _421  and  _424
REMARK  176  A    between atoms: _424  and  _425
REMARK  177  A    between atoms: _428  and  _430
REMARK  178  A    between atoms: _430  and  _431
REMARK  179  A    between atoms: _433  and  _435
REMARK  180  A    between atoms: _435  and  _436
REMARK  181  A    between atoms: _438  and  _440
REMARK  182  A    between atoms: _440  and  _441
REMARK  183  A    between atoms: _440  and  _443
REMARK  184  A    between atoms: _443  and  _444
REMARK  185  A    between atoms: _447  and  _449
REMARK  186  A    between atoms: _449  and  _450
REMARK  187  A    between atoms: _449  and  _452
REMARK  188  A    between atoms: _455  and  _457
REMARK  189  A    between atoms: _457  and  _458
REMARK  190  A    between atoms: _457  and  _460
REMARK  191  A    between atoms: _460  and  _461
REMARK  192  A    between atoms: _465  and  _466
REMARK  193  A    between atoms: _471  and  _473
REMARK  194  A    between atoms: _473  and  _474
REMARK  195  A    between atoms: _473  and  _476
REMARK  196  A    between atoms: _476  and  _477
REMARK  197  A    between atoms: _481  and  _482
REMARK  198  A    between atoms: _487  and  _489
REMARK  199  A    between atoms: _489  and  _490
REMARK  200  A    between atoms: _489  and  _492
REMARK  201  A    between atoms: _492  and  _493
REMARK  202  A    between atoms: _496  and  _498
REMARK  203  A    between atoms: _498  and  _499
REMARK  204  A    between atoms: _498  and  _501
REMARK  205  A    between atoms: _501  and  _502
REMARK  206  A    between atoms: _507  and  _509
REMARK  207  A    between atoms: _509  and  _510
REMARK  208  A    between atoms: _509  and  _512
REMARK  209  A    between atoms: _512  and  _513
REMARK  210  A    between atoms: _516  and  _518
REMARK  211  A    between atoms: _518  and  _519
REMARK  212  A    between atoms: _518  and  _521
REMARK  213  A    between atoms: _521  and  _522
REMARK  214  A    between atoms: _525  and  _527
REMARK  215  A    between atoms: _527  and  _528
REMARK  216  A    between atoms: _530  and  _532
REMARK  217  A    between atoms: _532  and  _533
REMARK  218  A    between atoms: _532  and  _535
REMARK  219  A    between atoms: _535  and  _536
REMARK  220  A    between atoms: _536  and  _537
REMARK  221  A    between atoms: _537  and  _538
REMARK  222  A    between atoms: _547  and  _549
REMARK  223  A    between atoms: _549  and  _550
REMARK  224  A    between atoms: _549  and  _552
REMARK  225  A    between atoms: _552  and  _553
REMARK                            x       y       z     vdW  Elec       q    Type
REMARK                         _______ _______ _______ _____ _____    ______ ____
ROOT
ATOM      1  CA  LEU A   1       2.606  10.395  23.664  0.00  0.00    +0.133 C 
ENDROOT
BRANCH   1   2
ATOM      2  N   LEU A   1       2.554   8.966  23.335  0.00  0.00    -0.239 NA
ATOM      3  H   LEU A   1       2.465   8.266  24.099  0.00  0.00    +0.142 HD
ENDBRANCH   1   2
BRANCH   1   4
ATOM      4  C   LEU A   1       4.063  10.758  23.964  0.00  0.00    +0.224 C 
ATOM      5  O   LEU A   1       4.837   9.942  24.503  0.00  0.00    -0.287 OA
ENDBRANCH   1   4
BRANCH   1   6
ATOM      6  CB  LEU A   1       1.771  10.725  24.936  0.00  0.00    +0.025 C 
BRANCH   6   7
ATOM      7  CG  LEU A   1       0.367  10.087  24.888  0.00  0.00    +0.002 C 
ATOM      8  CD2 LEU A   1      -0.447  10.353  26.180  0.00  0.00    +0.000 C 
ATOM      9  CD1 LEU A   1      -0.442  10.560  23.609  0.00  0.00    +0.000 C 
ENDBRANCH   6   7
ENDBRANCH   1   6
TORSDOF 4
REMARK  Name = ../refined-set-2016/3s56/3s56_pocket.pdb
REMARK  225 active torsions:
REMARK  status: ('A' for Active; 'I' for Inactive)
REMARK    1  A    between atoms: _1  and  _3
REMARK    2  A    between atoms: _3  and  _4
REMARK    3  A    between atoms: _3  and  _6
REMARK    4  A    between atoms: _6  and  _7
REMARK    5  A    between atoms: _7  and  _8
REMARK    6  A    between atoms: _8  and  _9
REMARK    7  A    between atoms: _18  and  _20
REMARK    8  A    between atoms: _20  and  _21
REMARK    9  A    between atoms: _20  and  _23
REMARK   10  A    between atoms: _23  and  _24
REMARK   11  A    between atoms: _27  and  _29
REMARK   12  A    between atoms: _29  and  _30
REMARK   13  A    between atoms: _29  and  _32
REMARK   14  A    between atoms: _32  and  _33
REMARK   15  A    between atoms: _36  and  _38
REMARK   16  A    between atoms: _38  and  _39
REMARK   17  A    between atoms: _38  and  _41
REMARK   18  A    between atoms: _41  and  _42
REMARK   19  A    between atoms: _45  and  _47
REMARK   20  A    between atoms: _47  and  _48
REMARK   21  A    between atoms: _47  and  _50
REMARK   22  A    between atoms: _50  and  _51
REMARK   23  A    between atoms: _54  and  _56
REMARK   24  A    between atoms: _56  and  _57
REMARK   25  A    between atoms: _59  and  _61
REMARK   26  A    between atoms: _61  and  _62
REMARK   27  A    between atoms: _65  and  _67
REMARK   28  A    between atoms: _67  and  _68
REMARK   29  A    between atoms: _67  and  _70
REMARK   30  A    between atoms: _70  and  _71
REMARK   31  A    between atoms: _74  and  _76
REMARK   32  A    between atoms: _76  and  _77
REMARK   33  A    between atoms: _76  and  _79
REMARK   34  A    between atoms: _79  and  _80
REMARK   35  A    between atoms: _83  and  _85
REMARK   36  A    between atoms: _85  and  _86
REMARK   37  A    between atoms: _85  and  _88
REMARK   38  A    between atoms: _88  and  _89
REMARK   39  A    between atoms: _92  and  _94
REMARK   40  A    between atoms: _94  and  _95
REMARK   41  A    between atoms: _94  and  _97
REMARK   42  A    between atoms: _97  and  _98
REMARK   43  A    between atoms: _101  and  _103
REMARK   44  A    between atoms: _103  and  _104
REMARK   45  A    between atoms: _103  and  _106
REMARK   46  A    between atoms: _106  and  _107
REMARK   47  A    between atoms: _107  and  _108
REMARK   48  A    between atoms: _108  and  _109
REMARK   49  A    between atoms: _109  and  _110
REMARK   50  A    between atoms: _114  and  _116
REMARK   51  A    between atoms: _116  and  _117
REMARK   52  A    between atoms: _116  and  _119
REMARK   53  A    between atoms: _119  and  _120
REMARK   54  A    between atoms: _120  and  _121
REMARK   55  A    between atoms: _123  and  _125
REMARK   56  A    between atoms: _125  and  _126
REMARK   57  A    between atoms: _125  and  _128
REMARK   58  A    between atoms: _131  and  _133
REMARK   59  A    between atoms: _133  and  _134
REMARK   60  A    between atoms: _136  and  _138
REMARK   61  A    between atoms: _138  and  _139
REMARK   62  A    between atoms: _141  and  _143
REMARK   63  A    between atoms: _143  and  _144
REMARK   64  A    between atoms: _143  and  _146
REMARK   65  A    between atoms: _146  and  _147
REMARK   66  A    between atoms: _150  and  _152
REMARK   67  A    between atoms: _152  and  _153
REMARK   68  A    between atoms: _155  and  _157
REMARK   69  A    between atoms: _157  and  _158
REMARK   70  A    between atoms: _160  and  _162
REMARK   71  A    between atoms: _162  and  _163
REMARK   72  A    between atoms: _162  and  _165
REMARK   73  A    between atoms: _165  and  _166
REMARK   74  A    between atoms: _172  and  _174
REMARK   75  A    between atoms: _174  and  _175
REMARK   76  A    between atoms: _174  and  _177
REMARK   77  A    between atoms: _177  and  _178
REMARK   78  A    between atoms: _181  and  _183
REMARK   79  A    between atoms: _183  and  _184
REMARK   80  A    between atoms: _183  and  _186
REMARK   81  A    between atoms: _189  and  _191
REMARK   82  A    between atoms: _191  and  _192
REMARK   83  A    between atoms: _191  and  _194
REMARK   84  A    between atoms: _194  and  _195
REMARK   85  A    between atoms: _199  and  _200
REMARK   86  A    between atoms: _205  and  _207
REMARK   87  A    between atoms: _207  and  _208
REMARK   88  A    between atoms: _207  and  _210
REMARK   89  A    between atoms: _210  and  _211
REMARK   90  A    between atoms: _215  and  _216
REMARK   91  A    between atoms: _221  and  _223
REMARK   92  A    between atoms: _223  and  _224
REMARK   93  A    between atoms: _223  and  _226
REMARK   94  A    between atoms: _226  and  _227
REMARK   95  A    between atoms: _230  and  _232
REMARK   96  A    between atoms: _232  and  _233
REMARK   97  A    between atoms: _232  and  _235
REMARK   98  A    between atoms: _235  and  _236
REMARK   99  A    between atoms: _241  and  _243
REMARK  100  A    between atoms: _243  and  _244
REMARK  101  A    between atoms: _243  and  _246
REMARK  102  A    between atoms: _246  and  _247
REMARK  103  A    between atoms: _250  and  _252
REMARK  104  A    between atoms: _252  and  _253
REMARK  105  A    between atoms: _252  and  _255
REMARK  106  A    between atoms: _255  and  _256
REMARK  107  A    between atoms: _259  and  _261
REMARK  108  A    between atoms: _261  and  _262
REMARK  109  A    between atoms: _264  and  _266
REMARK  110  A    between atoms: _266  and  _267
REMARK  111  A    between atoms: _266  and  _269
REMARK  112  A    between atoms: _269  and  _270
REMARK  113  A    between atoms: _270  and  _271
REMARK  114  A    between atoms: _271  and  _272
REMARK  115  A    between atoms: _281  and  _283
REMARK  116  A    between atoms: _283  and  _284
REMARK  117  A    between atoms: _283  and  _286
REMARK  118  A    between atoms: _286  and  _287
REMARK  119  A    between atoms: _292  and  _294
REMARK  120  A    between atoms: _294  and  _295
REMARK  121  A    between atoms: _294  and  _297
REMARK  122  A    between atoms: _297  and  _298
REMARK  123  A    between atoms: _298  and  _299
REMARK  124  A    between atoms: _299  and  _300
REMARK  125  A    between atoms: _309  and  _311
REMARK  126  A    between atoms: _311  and  _312
REMARK  127  A    between atoms: _311  and  _314
REMARK  128  A    between atoms: _314  and  _315
REMARK  129  A    between atoms: _318  and  _320
REMARK  130  A    between atoms: _320  and  _321
REMARK  131  A    between atoms: _320  and  _323
REMARK  132  A    between atoms: _323  and  _324
REMARK  133  A    between atoms: _327  and  _329
REMARK  134  A    between atoms: _329  and  _330
REMARK  135  A    between atoms: _329  and  _332
REMARK  136  A    between atoms: _332  and  _333
REMARK  137  A    between atoms: _336  and  _338
REMARK  138  A    between atoms: _338  and  _339
REMARK  139  A    between atoms: _338  and  _341
REMARK  140  A    between atoms: _341  and  _342
REMARK  141  A    between atoms: _345  and  _347
REMARK  142  A    between atoms: _347  and  _348
REMARK  143  A    between atoms: _350  and  _352
REMARK  144  A    between atoms: _352  and  _353
REMARK  145  A    between atoms: _356  and  _358
REMARK  146  A    between atoms: _358  and  _359
REMARK  147  A    between atoms: _358  and  _361
REMARK  148  A    between atoms: _361  and  _362
REMARK  149  A    between atoms: _365  and  _367
REMARK  150  A    between atoms: _367  and  _368
REMARK  151  A    between atoms: _367  and  _370
REMARK  152  A    between atoms: _370  and  _371
REMARK  153  A    between atoms: _374  and  _376
REMARK  154  A    between atoms: _376  and  _377
REMARK  155  A    between atoms: _376  and  _379
REMARK  156  A    between atoms: _379  and  _380
REMARK  157  A    between atoms: _383  and  _385
REMARK  158  A    between atoms: _385  and  _386
REMARK  159  A    between atoms: _385  and  _388
REMARK  160  A    between atoms: _388  and  _389
REMARK  161  A    between atoms: _392  and  _394
REMARK  162  A    between atoms: _394  and  _395
REMARK  163  A    between atoms: _394  and  _397
REMARK  164  A    between atoms: _397  and  _398
REMARK  165  A    between atoms: _398  and  _399
REMARK  166  A    between atoms: _401  and  _403
REMARK  167  A    between atoms: _403  and  _404
REMARK  168  A    between atoms: _403  and  _406
REMARK  169  A    between atoms: _409  and  _411
REMARK  170  A    between atoms: _411  and  _412
REMARK  171  A    between atoms: _414  and  _416
REMARK  172  A    between atoms: _416  and  _417
REMARK  173  A    between atoms: _419  and  _421
REMARK  174  A    between atoms: _421  and  _422
REMARK  175  A    between atoms: _421  and  _424
REMARK  176  A    between atoms: _424  and  _425
REMARK  177  A    between atoms: _428  and  _430
REMARK  178  A    between atoms: _430  and  _431
REMARK  179  A    between atoms: _433  and  _435
REMARK  180  A    between atoms: _435  and  _436
REMARK  181  A    between atoms: _438  and  _440
REMARK  182  A    between atoms: _440  and  _441
REMARK  183  A    between atoms: _440  and  _443
REMARK  184  A    between atoms: _443  and  _444
REMARK  185  A    between atoms: _447  and  _449
REMARK  186  A    between atoms: _449  and  _450
REMARK  187  A    between atoms: _449  and  _452
REMARK  188  A    between atoms: _455  and  _457
REMARK  189  A    between atoms: _457  and  _458
REMARK  190  A    between atoms: _457  and  _460
REMARK  191  A    between atoms: _460  and  _461
REMARK  192  A    between atoms: _465  and  _466
REMARK  193  A    between atoms: _471  and  _473
REMARK  194  A    between atoms: _473  and  _474
REMARK  195  A    between atoms: _473  and  _476
REMARK  196  A    between atoms: _476  and  _477
REMARK  197  A    between atoms: _481  and  _482
REMARK  198  A    between atoms: _487  and  _489
REMARK  199  A    between atoms: _489  and  _490
REMARK  200  A    between atoms: _489  and  _492
REMARK  201  A    between atoms: _492  and  _493
REMARK  202  A    between atoms: _496  and  _498
REMARK  203  A    between atoms: _498  and  _499
REMARK  204  A    between atoms: _498  and  _501
REMARK  205  A    between atoms: _501  and  _502
REMARK  206  A    between atoms: _507  and  _509
REMARK  207  A    between atoms: _509  and  _510
REMARK  208  A    between atoms: _509  and  _512
REMARK  209  A    between atoms: _512  and  _513
REMARK  210  A    between atoms: _516  and  _518
REMARK  211  A    between atoms: _518  and  _519
REMARK  212  A    between atoms: _518  and  _521
REMARK  213  A    between atoms: _521  and  _522
REMARK  214  A    between atoms: _525  and  _527
REMARK  215  A    between atoms: _527  and  _528
REMARK  216  A    between atoms: _530  and  _532
REMARK  217  A    between atoms: _532  and  _533
REMARK  218  A    between atoms: _532  and  _535
REMARK  219  A    between atoms: _535  and  _536
REMARK  220  A    between atoms: _536  and  _537
REMARK  221  A    between atoms: _537  and  _538
REMARK  222  A    between atoms: _547  and  _549
REMARK  223  A    between atoms: _549  and  _550
REMARK  224  A    between atoms: _549  and  _552
REMARK  225  A    between atoms: _552  and  _553
REMARK                            x       y       z     vdW  Elec       q    Type
REMARK                         _______ _______ _______ _____ _____    ______ ____
ROOT
ATOM      1  CA  ILE A   6       6.173   4.632  30.691  0.00  0.00    +0.149 C 
ENDROOT
BRANCH   1   2
ATOM      2  C   ILE A   6       5.420   3.915  29.575  0.00  0.00    +0.241 C 
ATOM      3  N   ILE A   7       5.318   2.594  29.727  0.00  0.00    -0.297 N 
ATOM      4  H   ILE A   7       5.784   2.126  30.530  0.00  0.00    +0.150 HD
ATOM      5  O   ILE A   6       4.849   4.565  28.629  0.00  0.00    -0.273 OA
BRANCH   3   6
ATOM      6  CA  ILE A   7       4.560   1.813  28.776  0.00  0.00    +0.149 C 
BRANCH   6   7
ATOM      7  C   ILE A   7       3.222   1.513  29.470  0.00  0.00    +0.241 C 
ATOM      8  O   ILE A   7       3.228   0.767  30.509  0.00  0.00    -0.273 OA
ATOM      9  N   GLY A   8       2.120   2.030  28.951  0.00  0.00    -0.295 N 
ATOM     10  H   GLY A   8       2.174   2.551  28.053  0.00  0.00    +0.150 HD
BRANCH   9  11
ATOM     11  CA  GLY A   8       0.803   1.879  29.631  0.00  0.00    +0.176 C 
BRANCH  11  12
ATOM     12  C   GLY A   8       0.037   0.740  28.989  0.00  0.00    +0.243 C 
ATOM     13  N   ARG A   9      -1.230   0.584  29.365  0.00  0.00    -0.297 N 
ATOM     14  H   ARG A   9      -1.679   1.310  29.959  0.00  0.00    +0.150 HD
ATOM     15  O   GLY A   8       0.563   0.037  28.081  0.00  0.00    -0.273 OA
BRANCH  13  16
ATOM     16  CA  ARG A   9      -2.020  -0.615  28.950  0.00  0.00    +0.149 C 
BRANCH  16  17
ATOM     17  C   ARG A   9      -2.272  -0.724  27.424  0.00  0.00    +0.241 C 
ATOM     18  O   ARG A   9      -2.488  -1.838  26.961  0.00  0.00    -0.273 OA
ATOM     19  N   ASN A  10      -2.335   0.392  26.702  0.00  0.00    -0.298 N 
ATOM     20  H   ASN A  10      -2.198   1.312  27.167  0.00  0.00    +0.150 HD
BRANCH  19  21
ATOM     21  CA  ASN A  10      -2.597   0.341  25.248  0.00  0.00    +0.146 C 
BRANCH  21  22
ATOM     22  C   ASN A  10      -1.535  -0.560  24.581  0.00  0.00    +0.227 C 
ATOM     23  O   ASN A  10      -1.806  -1.302  23.611  0.00  0.00    -0.286 OA
ENDBRANCH  21  22
BRANCH  21  24
ATOM     24  CB  ASN A  10      -2.636   1.789  24.663  0.00  0.00    +0.112 C 
BRANCH  24  25
ATOM     25  CG  ASN A  10      -1.274   2.465  24.667  0.00  0.00    +0.222 C 
ATOM     26  OD1 ASN A  10      -0.582   2.563  25.710  0.00  0.00    -0.275 OA
ATOM     27  ND2 ASN A  10      -0.826   2.932  23.440  0.00  0.00    -0.329 N 
ATOM     28 HD21 ASN A  10       0.110   3.380  23.364  0.00  0.00    +0.145 HD
ATOM     29 HD22 ASN A  10      -1.426   2.834  22.596  0.00  0.00    +0.145 HD
ENDBRANCH  24  25
ENDBRANCH  21  24
ENDBRANCH  19  21
ENDBRANCH  16  17
BRANCH  16  30
ATOM     30  CB  ARG A   9      -3.416  -0.600  29.653  0.00  0.00    +0.033 C 
BRANCH  30  31
ATOM     31  CG  ARG A   9      -3.286  -0.739  31.243  0.00  0.00    +0.045 C 
BRANCH  31  32
ATOM     32  CD  ARG A   9      -4.674  -1.039  31.908  0.00  0.00    +0.174 C 
BRANCH  32  33
ATOM     33  NE  ARG A   9      -5.469   0.252  31.763  0.00  0.00    -0.265 N 
ATOM     34  HE  ARG A   9      -5.311   1.012  32.455  0.00  0.00    +0.259 HD
ATOM     35  CZ  ARG A   9      -6.371   0.455  30.777  0.00  0.00    +0.342 C 
ATOM     36  NH2 ARG A   9      -6.964   1.652  30.618  0.00  0.00    -0.292 N 
ATOM     37 HH21 ARG A   9      -6.730   2.437  31.259  0.00  0.00    +0.255 HD
ATOM     38 HH22 ARG A   9      -7.656   1.792  29.854  0.00  0.00    +0.255 HD
ATOM     39  NH1 ARG A   9      -6.698  -0.561  29.963  0.00  0.00    -0.292 N 
ATOM     40 HH11 ARG A   9      -6.258  -1.494  30.094  0.00  0.00    +0.255 HD
ATOM     41 HH12 ARG A   9      -7.391  -0.415  29.201  0.00  0.00    +0.255 HD
ENDBRANCH  32  33
ENDBRANCH  31  32
ENDBRANCH  30  31
ENDBRANCH  16  30
ENDBRANCH  13  16
ENDBRANCH  11  12
ENDBRANCH   9  11
ENDBRANCH   6   7
BRANCH   6  42
ATOM     42  CB  ILE A   7       5.277   0.485  28.483  0.00  0.00    +0.027 C 
ATOM     43  CG2 ILE A   7       4.472  -0.337  27.442  0.00  0.00    +0.002 C 
BRANCH  42  44
ATOM     44  CG1 ILE A   7       6.740   0.716  27.977  0.00  0.00    +0.002 C 
ATOM     45  CD1 ILE A   7       6.901   1.765  26.880  0.00  0.00    +0.000 C 
ENDBRANCH  42  44
ENDBRANCH   6  42
ENDBRANCH   3   6
ENDBRANCH   1   2
BRANCH   1  48
ATOM     46  C   ASN A   5       8.423   5.524  30.448  0.00  0.00    +0.241 C 
ATOM     47  O   ASN A   5       8.869   4.732  31.289  0.00  0.00    -0.273 OA
ATOM     48  N   ILE A   6       7.143   5.573  30.116  0.00  0.00    -0.297 N 
ATOM     49  H   ILE A   6       6.818   6.290  29.436  0.00  0.00    +0.150 HD
BRANCH  46  50
ATOM     50  CA  ASN A   5       9.381   6.561  29.759  0.00  0.00    +0.158 C 
BRANCH  50  53
ATOM     51  C   ILE A   4       9.711   7.901  31.748  0.00  0.00    +0.241 C 
ATOM     52  O   ILE A   4       8.504   8.159  31.775  0.00  0.00    -0.273 OA
ATOM     53  N   ASN A   5      10.263   7.150  30.805  0.00  0.00    -0.297 N 
ATOM     54  H   ASN A   5      11.288   6.976  30.796  0.00  0.00    +0.150 HD
BRANCH  51  55
ATOM     55  CA  ILE A   4      10.585   8.444  32.908  0.00  0.00    +0.149 C 
BRANCH  55  58
ATOM     56  C   PRO A   3      10.800  10.635  33.926  0.00  0.00    +0.241 C 
ATOM     57  O   PRO A   3      11.984  10.357  34.199  0.00  0.00    -0.273 OA
ATOM     58  N   ILE A   4      10.014   9.743  33.308  0.00  0.00    -0.297 N 
ATOM     59  H   ILE A   4       9.016   9.964  33.113  0.00  0.00    +0.150 HD
BRANCH  56  65
ATOM     60  C   THR A   2       8.888  12.589  32.472  0.00  0.00    +0.246 C 
ATOM     61  N   PRO A   3       8.941  12.359  33.795  0.00  0.00    -0.272 N 
ATOM     62  CD  PRO A   3       7.797  12.337  34.723  0.00  0.00    +0.094 C 
ATOM     63  CG  PRO A   3       8.478  12.394  36.105  0.00  0.00    +0.024 C 
ATOM     64  CB  PRO A   3       9.705  11.638  35.891  0.00  0.00    +0.031 C 
ATOM     65  CA  PRO A   3      10.167  11.930  34.434  0.00  0.00    +0.152 C 
ATOM     66  O   THR A   2       9.888  12.653  31.802  0.00  0.00    -0.273 OA
BRANCH  60  67
ATOM     67  CA  THR A   2       7.513  12.752  31.809  0.00  0.00    +0.176 C 
BRANCH  67  70
ATOM     68  C   PRO A   1       7.486  15.005  31.029  0.00  0.00    +0.239 C 
ATOM     69  O   PRO A   1       7.114  15.346  32.159  0.00  0.00    -0.274 OA
ATOM     70  N   THR A   2       7.750  13.774  30.760  0.00  0.00    -0.295 N 
ATOM     71  H   THR A   2       8.121  13.502  29.827  0.00  0.00    +0.150 HD
BRANCH  68  73
ATOM     72  N   PRO A   1       6.690  15.923  28.825  0.00  0.00    -0.210 NA
ATOM     73  CA  PRO A   1       7.702  16.002  29.900  0.00  0.00    +0.149 C 
ATOM     74  CB  PRO A   1       7.563  17.435  30.393  0.00  0.00    +0.028 C 
ATOM     75  CG  PRO A   1       6.008  17.689  30.258  0.00  0.00    +0.021 C 
ATOM     76  CD  PRO A   1       5.756  17.087  28.871  0.00  0.00    +0.089 C 
ENDBRANCH  68  73
ENDBRANCH  67  70
BRANCH  67  77
ATOM     77  CB  THR A   2       7.036  11.466  31.219  0.00  0.00    +0.137 C 
ATOM     78  CG2 THR A   2       7.980  10.946  30.043  0.00  0.00    +0.034 C 
BRANCH  77  79
ATOM     79  OG1 THR A   2       7.035  10.495  32.258  0.00  0.00    -0.382 OA
ATOM     80  HG1 THR A   2       6.722   9.628  31.897  0.00  0.00    +0.210 HD
ENDBRANCH  77  79
ENDBRANCH  67  77
ENDBRANCH  60  67
ENDBRANCH  56  65
ENDBRANCH  55  58
BRANCH  55  81
ATOM     81  CB  ILE A   4      10.421   7.374  34.090  0.00  0.00    +0.027 C 
ATOM     82  CG2 ILE A   4       9.028   7.324  34.645  0.00  0.00    +0.002 C 
BRANCH  81  83
ATOM     83  CG1 ILE A   4      10.778   5.949  33.690  0.00  0.00    +0.002 C 
ATOM     84  CD1 ILE A   4      12.131   5.851  33.114  0.00  0.00    +0.000 C 
ENDBRANCH  81  83
ENDBRANCH  55  81
ENDBRANCH  51  55
ENDBRANCH  50  53
BRANCH  50  85
ATOM     85  CB  ASN A   5      10.261   5.824  28.743  0.00  0.00    +0.114 C 
BRANCH  85  86
ATOM     86  CG  ASN A   5      11.221   6.744  28.057  0.00  0.00    +0.222 C 
ATOM     87  ND2 ASN A   5      12.479   6.296  27.923  0.00  0.00    -0.329 N 
ATOM     88 HD21 ASN A   5      12.718   5.324  28.206  0.00  0.00    +0.145 HD
ATOM     89 HD22 ASN A   5      13.215   6.921  27.536  0.00  0.00    +0.145 HD
ATOM     90  OD1 ASN A   5      10.877   7.891  27.737  0.00  0.00    -0.275 OA
ENDBRANCH  85  86
ENDBRANCH  50  85
ENDBRANCH  46  50
ENDBRANCH   1  48
BRANCH   1  91
ATOM     91  CB  ILE A   6       5.135   5.483  31.461  0.00  0.00    +0.027 C 
ATOM     92  CG2 ILE A   6       3.874   4.605  31.756  0.00  0.00    +0.002 C 
BRANCH  91  93
ATOM     93  CG1 ILE A   6       5.820   6.212  32.652  0.00  0.00    +0.002 C 
ATOM     94  CD1 ILE A   6       4.944   7.353  33.185  0.00  0.00    +0.000 C 
ENDBRANCH  91  93
ENDBRANCH   1  91
TORSDOF 34
REMARK  Name = ../refined-set-2016/3s56/3s56_pocket.pdb
REMARK  225 active torsions:
REMARK  status: ('A' for Active; 'I' for Inactive)
REMARK    1  A    between atoms: _1  and  _3
REMARK    2  A    between atoms: _3  and  _4
REMARK    3  A    between atoms: _3  and  _6
REMARK    4  A    between atoms: _6  and  _7
REMARK    5  A    between atoms: _7  and  _8
REMARK    6  A    between atoms: _8  and  _9
REMARK    7  A    between atoms: _18  and  _20
REMARK    8  A    between atoms: _20  and  _21
REMARK    9  A    between atoms: _20  and  _23
REMARK   10  A    between atoms: _23  and  _24
REMARK   11  A    between atoms: _27  and  _29
REMARK   12  A    between atoms: _29  and  _30
REMARK   13  A    between atoms: _29  and  _32
REMARK   14  A    between atoms: _32  and  _33
REMARK   15  A    between atoms: _36  and  _38
REMARK   16  A    between atoms: _38  and  _39
REMARK   17  A    between atoms: _38  and  _41
REMARK   18  A    between atoms: _41  and  _42
REMARK   19  A    between atoms: _45  and  _47
REMARK   20  A    between atoms: _47  and  _48
REMARK   21  A    between atoms: _47  and  _50
REMARK   22  A    between atoms: _50  and  _51
REMARK   23  A    between atoms: _54  and  _56
REMARK   24  A    between atoms: _56  and  _57
REMARK   25  A    between atoms: _59  and  _61
REMARK   26  A    between atoms: _61  and  _62
REMARK   27  A    between atoms: _65  and  _67
REMARK   28  A    between atoms: _67  and  _68
REMARK   29  A    between atoms: _67  and  _70
REMARK   30  A    between atoms: _70  and  _71
REMARK   31  A    between atoms: _74  and  _76
REMARK   32  A    between atoms: _76  and  _77
REMARK   33  A    between atoms: _76  and  _79
REMARK   34  A    between atoms: _79  and  _80
REMARK   35  A    between atoms: _83  and  _85
REMARK   36  A    between atoms: _85  and  _86
REMARK   37  A    between atoms: _85  and  _88
REMARK   38  A    between atoms: _88  and  _89
REMARK   39  A    between atoms: _92  and  _94
REMARK   40  A    between atoms: _94  and  _95
REMARK   41  A    between atoms: _94  and  _97
REMARK   42  A    between atoms: _97  and  _98
REMARK   43  A    between atoms: _101  and  _103
REMARK   44  A    between atoms: _103  and  _104
REMARK   45  A    between atoms: _103  and  _106
REMARK   46  A    between atoms: _106  and  _107
REMARK   47  A    between atoms: _107  and  _108
REMARK   48  A    between atoms: _108  and  _109
REMARK   49  A    between atoms: _109  and  _110
REMARK   50  A    between atoms: _114  and  _116
REMARK   51  A    between atoms: _116  and  _117
REMARK   52  A    between atoms: _116  and  _119
REMARK   53  A    between atoms: _119  and  _120
REMARK   54  A    between atoms: _120  and  _121
REMARK   55  A    between atoms: _123  and  _125
REMARK   56  A    between atoms: _125  and  _126
REMARK   57  A    between atoms: _125  and  _128
REMARK   58  A    between atoms: _131  and  _133
REMARK   59  A    between atoms: _133  and  _134
REMARK   60  A    between atoms: _136  and  _138
REMARK   61  A    between atoms: _138  and  _139
REMARK   62  A    between atoms: _141  and  _143
REMARK   63  A    between atoms: _143  and  _144
REMARK   64  A    between atoms: _143  and  _146
REMARK   65  A    between atoms: _146  and  _147
REMARK   66  A    between atoms: _150  and  _152
REMARK   67  A    between atoms: _152  and  _153
REMARK   68  A    between atoms: _155  and  _157
REMARK   69  A    between atoms: _157  and  _158
REMARK   70  A    between atoms: _160  and  _162
REMARK   71  A    between atoms: _162  and  _163
REMARK   72  A    between atoms: _162  and  _165
REMARK   73  A    between atoms: _165  and  _166
REMARK   74  A    between atoms: _172  and  _174
REMARK   75  A    between atoms: _174  and  _175
REMARK   76  A    between atoms: _174  and  _177
REMARK   77  A    between atoms: _177  and  _178
REMARK   78  A    between atoms: _181  and  _183
REMARK   79  A    between atoms: _183  and  _184
REMARK   80  A    between atoms: _183  and  _186
REMARK   81  A    between atoms: _189  and  _191
REMARK   82  A    between atoms: _191  and  _192
REMARK   83  A    between atoms: _191  and  _194
REMARK   84  A    between atoms: _194  and  _195
REMARK   85  A    between atoms: _199  and  _200
REMARK   86  A    between atoms: _205  and  _207
REMARK   87  A    between atoms: _207  and  _208
REMARK   88  A    between atoms: _207  and  _210
REMARK   89  A    between atoms: _210  and  _211
REMARK   90  A    between atoms: _215  and  _216
REMARK   91  A    between atoms: _221  and  _223
REMARK   92  A    between atoms: _223  and  _224
REMARK   93  A    between atoms: _223  and  _226
REMARK   94  A    between atoms: _226  and  _227
REMARK   95  A    between atoms: _230  and  _232
REMARK   96  A    between atoms: _232  and  _233
REMARK   97  A    between atoms: _232  and  _235
REMARK   98  A    between atoms: _235  and  _236
REMARK   99  A    between atoms: _241  and  _243
REMARK  100  A    between atoms: _243  and  _244
REMARK  101  A    between atoms: _243  and  _246
REMARK  102  A    between atoms: _246  and  _247
REMARK  103  A    between atoms: _250  and  _252
REMARK  104  A    between atoms: _252  and  _253
REMARK  105  A    between atoms: _252  and  _255
REMARK  106  A    between atoms: _255  and  _256
REMARK  107  A    between atoms: _259  and  _261
REMARK  108  A    between atoms: _261  and  _262
REMARK  109  A    between atoms: _264  and  _266
REMARK  110  A    between atoms: _266  and  _267
REMARK  111  A    between atoms: _266  and  _269
REMARK  112  A    between atoms: _269  and  _270
REMARK  113  A    between atoms: _270  and  _271
REMARK  114  A    between atoms: _271  and  _272
REMARK  115  A    between atoms: _281  and  _283
REMARK  116  A    between atoms: _283  and  _284
REMARK  117  A    between atoms: _283  and  _286
REMARK  118  A    between atoms: _286  and  _287
REMARK  119  A    between atoms: _292  and  _294
REMARK  120  A    between atoms: _294  and  _295
REMARK  121  A    between atoms: _294  and  _297
REMARK  122  A    between atoms: _297  and  _298
REMARK  123  A    between atoms: _298  and  _299
REMARK  124  A    between atoms: _299  and  _300
REMARK  125  A    between atoms: _309  and  _311
REMARK  126  A    between atoms: _311  and  _312
REMARK  127  A    between atoms: _311  and  _314
REMARK  128  A    between atoms: _314  and  _315
REMARK  129  A    between atoms: _318  and  _320
REMARK  130  A    between atoms: _320  and  _321
REMARK  131  A    between atoms: _320  and  _323
REMARK  132  A    between atoms: _323  and  _324
REMARK  133  A    between atoms: _327  and  _329
REMARK  134  A    between atoms: _329  and  _330
REMARK  135  A    between atoms: _329  and  _332
REMARK  136  A    between atoms: _332  and  _333
REMARK  137  A    between atoms: _336  and  _338
REMARK  138  A    between atoms: _338  and  _339
REMARK  139  A    between atoms: _338  and  _341
REMARK  140  A    between atoms: _341  and  _342
REMARK  141  A    between atoms: _345  and  _347
REMARK  142  A    between atoms: _347  and  _348
REMARK  143  A    between atoms: _350  and  _352
REMARK  144  A    between atoms: _352  and  _353
REMARK  145  A    between atoms: _356  and  _358
REMARK  146  A    between atoms: _358  and  _359
REMARK  147  A    between atoms: _358  and  _361
REMARK  148  A    between atoms: _361  and  _362
REMARK  149  A    between atoms: _365  and  _367
REMARK  150  A    between atoms: _367  and  _368
REMARK  151  A    between atoms: _367  and  _370
REMARK  152  A    between atoms: _370  and  _371
REMARK  153  A    between atoms: _374  and  _376
REMARK  154  A    between atoms: _376  and  _377
REMARK  155  A    between atoms: _376  and  _379
REMARK  156  A    between atoms: _379  and  _380
REMARK  157  A    between atoms: _383  and  _385
REMARK  158  A    between atoms: _385  and  _386
REMARK  159  A    between atoms: _385  and  _388
REMARK  160  A    between atoms: _388  and  _389
REMARK  161  A    between atoms: _392  and  _394
REMARK  162  A    between atoms: _394  and  _395
REMARK  163  A    between atoms: _394  and  _397
REMARK  164  A    between atoms: _397  and  _398
REMARK  165  A    between atoms: _398  and  _399
REMARK  166  A    between atoms: _401  and  _403
REMARK  167  A    between atoms: _403  and  _404
REMARK  168  A    between atoms: _403  and  _406
REMARK  169  A    between atoms: _409  and  _411
REMARK  170  A    between atoms: _411  and  _412
REMARK  171  A    between atoms: _414  and  _416
REMARK  172  A    between atoms: _416  and  _417
REMARK  173  A    between atoms: _419  and  _421
REMARK  174  A    between atoms: _421  and  _422
REMARK  175  A    between atoms: _421  and  _424
REMARK  176  A    between atoms: _424  and  _425
REMARK  177  A    between atoms: _428  and  _430
REMARK  178  A    between atoms: _430  and  _431
REMARK  179  A    between atoms: _433  and  _435
REMARK  180  A    between atoms: _435  and  _436
REMARK  181  A    between atoms: _438  and  _440
REMARK  182  A    between atoms: _440  and  _441
REMARK  183  A    between atoms: _440  and  _443
REMARK  184  A    between atoms: _443  and  _444
REMARK  185  A    between atoms: _447  and  _449
REMARK  186  A    between atoms: _449  and  _450
REMARK  187  A    between atoms: _449  and  _452
REMARK  188  A    between atoms: _455  and  _457
REMARK  189  A    between atoms: _457  and  _458
REMARK  190  A    between atoms: _457  and  _460
REMARK  191  A    between atoms: _460  and  _461
REMARK  192  A    between atoms: _465  and  _466
REMARK  193  A    between atoms: _471  and  _473
REMARK  194  A    between atoms: _473  and  _474
REMARK  195  A    between atoms: _473  and  _476
REMARK  196  A    between atoms: _476  and  _477
REMARK  197  A    between atoms: _481  and  _482
REMARK  198  A    between atoms: _487  and  _489
REMARK  199  A    between atoms: _489  and  _490
REMARK  200  A    between atoms: _489  and  _492
REMARK  201  A    between atoms: _492  and  _493
REMARK  202  A    between atoms: _496  and  _498
REMARK  203  A    between atoms: _498  and  _499
REMARK  204  A    between atoms: _498  and  _501
REMARK  205  A    between atoms: _501  and  _502
REMARK  206  A    between atoms: _507  and  _509
REMARK  207  A    between atoms: _509  and  _510
REMARK  208  A    between atoms: _509  and  _512
REMARK  209  A    between atoms: _512  and  _513
REMARK  210  A    between atoms: _516  and  _518
REMARK  211  A    between atoms: _518  and  _519
REMARK  212  A    between atoms: _518  and  _521
REMARK  213  A    between atoms: _521  and  _522
REMARK  214  A    between atoms: _525  and  _527
REMARK  215  A    between atoms: _527  and  _528
REMARK  216  A    between atoms: _530  and  _532
REMARK  217  A    between atoms: _532  and  _533
REMARK  218  A    between atoms: _532  and  _535
REMARK  219  A    between atoms: _535  and  _536
REMARK  220  A    between atoms: _536  and  _537
REMARK  221  A    between atoms: _537  and  _538
REMARK  222  A    between atoms: _547  and  _549
REMARK  223  A    between atoms: _549  and  _550
REMARK  224  A    between atoms: _549  and  _552
REMARK  225  A    between atoms: _552  and  _553
REMARK                            x       y       z     vdW  Elec       q    Type
REMARK                         _______ _______ _______ _____ _____    ______ ____
ROOT
ATOM      1  O   HOH     1       7.173  10.742  44.956  0.00  0.00    +0.000 OA
ENDROOT
TORSDOF 0
REMARK  Name = ../refined-set-2016/3s56/3s56_pocket.pdb
REMARK  225 active torsions:
REMARK  status: ('A' for Active; 'I' for Inactive)
REMARK    1  A    between atoms: _1  and  _3
REMARK    2  A    between atoms: _3  and  _4
REMARK    3  A    between atoms: _3  and  _6
REMARK    4  A    between atoms: _6  and  _7
REMARK    5  A    between atoms: _7  and  _8
REMARK    6  A    between atoms: _8  and  _9
REMARK    7  A    between atoms: _18  and  _20
REMARK    8  A    between atoms: _20  and  _21
REMARK    9  A    between atoms: _20  and  _23
REMARK   10  A    between atoms: _23  and  _24
REMARK   11  A    between atoms: _27  and  _29
REMARK   12  A    between atoms: _29  and  _30
REMARK   13  A    between atoms: _29  and  _32
REMARK   14  A    between atoms: _32  and  _33
REMARK   15  A    between atoms: _36  and  _38
REMARK   16  A    between atoms: _38  and  _39
REMARK   17  A    between atoms: _38  and  _41
REMARK   18  A    between atoms: _41  and  _42
REMARK   19  A    between atoms: _45  and  _47
REMARK   20  A    between atoms: _47  and  _48
REMARK   21  A    between atoms: _47  and  _50
REMARK   22  A    between atoms: _50  and  _51
REMARK   23  A    between atoms: _54  and  _56
REMARK   24  A    between atoms: _56  and  _57
REMARK   25  A    between atoms: _59  and  _61
REMARK   26  A    between atoms: _61  and  _62
REMARK   27  A    between atoms: _65  and  _67
REMARK   28  A    between atoms: _67  and  _68
REMARK   29  A    between atoms: _67  and  _70
REMARK   30  A    between atoms: _70  and  _71
REMARK   31  A    between atoms: _74  and  _76
REMARK   32  A    between atoms: _76  and  _77
REMARK   33  A    between atoms: _76  and  _79
REMARK   34  A    between atoms: _79  and  _80
REMARK   35  A    between atoms: _83  and  _85
REMARK   36  A    between atoms: _85  and  _86
REMARK   37  A    between atoms: _85  and  _88
REMARK   38  A    between atoms: _88  and  _89
REMARK   39  A    between atoms: _92  and  _94
REMARK   40  A    between atoms: _94  and  _95
REMARK   41  A    between atoms: _94  and  _97
REMARK   42  A    between atoms: _97  and  _98
REMARK   43  A    between atoms: _101  and  _103
REMARK   44  A    between atoms: _103  and  _104
REMARK   45  A    between atoms: _103  and  _106
REMARK   46  A    between atoms: _106  and  _107
REMARK   47  A    between atoms: _107  and  _108
REMARK   48  A    between atoms: _108  and  _109
REMARK   49  A    between atoms: _109  and  _110
REMARK   50  A    between atoms: _114  and  _116
REMARK   51  A    between atoms: _116  and  _117
REMARK   52  A    between atoms: _116  and  _119
REMARK   53  A    between atoms: _119  and  _120
REMARK   54  A    between atoms: _120  and  _121
REMARK   55  A    between atoms: _123  and  _125
REMARK   56  A    between atoms: _125  and  _126
REMARK   57  A    between atoms: _125  and  _128
REMARK   58  A    between atoms: _131  and  _133
REMARK   59  A    between atoms: _133  and  _134
REMARK   60  A    between atoms: _136  and  _138
REMARK   61  A    between atoms: _138  and  _139
REMARK   62  A    between atoms: _141  and  _143
REMARK   63  A    between atoms: _143  and  _144
REMARK   64  A    between atoms: _143  and  _146
REMARK   65  A    between atoms: _146  and  _147
REMARK   66  A    between atoms: _150  and  _152
REMARK   67  A    between atoms: _152  and  _153
REMARK   68  A    between atoms: _155  and  _157
REMARK   69  A    between atoms: _157  and  _158
REMARK   70  A    between atoms: _160  and  _162
REMARK   71  A    between atoms: _162  and  _163
REMARK   72  A    between atoms: _162  and  _165
REMARK   73  A    between atoms: _165  and  _166
REMARK   74  A    between atoms: _172  and  _174
REMARK   75  A    between atoms: _174  and  _175
REMARK   76  A    between atoms: _174  and  _177
REMARK   77  A    between atoms: _177  and  _178
REMARK   78  A    between atoms: _181  and  _183
REMARK   79  A    between atoms: _183  and  _184
REMARK   80  A    between atoms: _183  and  _186
REMARK   81  A    between atoms: _189  and  _191
REMARK   82  A    between atoms: _191  and  _192
REMARK   83  A    between atoms: _191  and  _194
REMARK   84  A    between atoms: _194  and  _195
REMARK   85  A    between atoms: _199  and  _200
REMARK   86  A    between atoms: _205  and  _207
REMARK   87  A    between atoms: _207  and  _208
REMARK   88  A    between atoms: _207  and  _210
REMARK   89  A    between atoms: _210  and  _211
REMARK   90  A    between atoms: _215  and  _216
REMARK   91  A    between atoms: _221  and  _223
REMARK   92  A    between atoms: _223  and  _224
REMARK   93  A    between atoms: _223  and  _226
REMARK   94  A    between atoms: _226  and  _227
REMARK   95  A    between atoms: _230  and  _232
REMARK   96  A    between atoms: _232  and  _233
REMARK   97  A    between atoms: _232  and  _235
REMARK   98  A    between atoms: _235  and  _236
REMARK   99  A    between atoms: _241  and  _243
REMARK  100  A    between atoms: _243  and  _244
REMARK  101  A    between atoms: _243  and  _246
REMARK  102  A    between atoms: _246  and  _247
REMARK  103  A    between atoms: _250  and  _252
REMARK  104  A    between atoms: _252  and  _253
REMARK  105  A    between atoms: _252  and  _255
REMARK  106  A    between atoms: _255  and  _256
REMARK  107  A    between atoms: _259  and  _261
REMARK  108  A    between atoms: _261  and  _262
REMARK  109  A    between atoms: _264  and  _266
REMARK  110  A    between atoms: _266  and  _267
REMARK  111  A    between atoms: _266  and  _269
REMARK  112  A    between atoms: _269  and  _270
REMARK  113  A    between atoms: _270  and  _271
REMARK  114  A    between atoms: _271  and  _272
REMARK  115  A    between atoms: _281  and  _283
REMARK  116  A    between atoms: _283  and  _284
REMARK  117  A    between atoms: _283  and  _286
REMARK  118  A    between atoms: _286  and  _287
REMARK  119  A    between atoms: _292  and  _294
REMARK  120  A    between atoms: _294  and  _295
REMARK  121  A    between atoms: _294  and  _297
REMARK  122  A    between atoms: _297  and  _298
REMARK  123  A    between atoms: _298  and  _299
REMARK  124  A    between atoms: _299  and  _300
REMARK  125  A    between atoms: _309  and  _311
REMARK  126  A    between atoms: _311  and  _312
REMARK  127  A    between atoms: _311  and  _314
REMARK  128  A    between atoms: _314  and  _315
REMARK  129  A    between atoms: _318  and  _320
REMARK  130  A    between atoms: _320  and  _321
REMARK  131  A    between atoms: _320  and  _323
REMARK  132  A    between atoms: _323  and  _324
REMARK  133  A    between atoms: _327  and  _329
REMARK  134  A    between atoms: _329  and  _330
REMARK  135  A    between atoms: _329  and  _332
REMARK  136  A    between atoms: _332  and  _333
REMARK  137  A    between atoms: _336  and  _338
REMARK  138  A    between atoms: _338  and  _339
REMARK  139  A    between atoms: _338  and  _341
REMARK  140  A    between atoms: _341  and  _342
REMARK  141  A    between atoms: _345  and  _347
REMARK  142  A    between atoms: _347  and  _348
REMARK  143  A    between atoms: _350  and  _352
REMARK  144  A    between atoms: _352  and  _353
REMARK  145  A    between atoms: _356  and  _358
REMARK  146  A    between atoms: _358  and  _359
REMARK  147  A    between atoms: _358  and  _361
REMARK  148  A    between atoms: _361  and  _362
REMARK  149  A    between atoms: _365  and  _367
REMARK  150  A    between atoms: _367  and  _368
REMARK  151  A    between atoms: _367  and  _370
REMARK  152  A    between atoms: _370  and  _371
REMARK  153  A    between atoms: _374  and  _376
REMARK  154  A    between atoms: _376  and  _377
REMARK  155  A    between atoms: _376  and  _379
REMARK  156  A    between atoms: _379  and  _380
REMARK  157  A    between atoms: _383  and  _385
REMARK  158  A    between atoms: _385  and  _386
REMARK  159  A    between atoms: _385  and  _388
REMARK  160  A    between atoms: _388  and  _389
REMARK  161  A    between atoms: _392  and  _394
REMARK  162  A    between atoms: _394  and  _395
REMARK  163  A    between atoms: _394  and  _397
REMARK  164  A    between atoms: _397  and  _398
REMARK  165  A    between atoms: _398  and  _399
REMARK  166  A    between atoms: _401  and  _403
REMARK  167  A    between atoms: _403  and  _404
REMARK  168  A    between atoms: _403  and  _406
REMARK  169  A    between atoms: _409  and  _411
REMARK  170  A    between atoms: _411  and  _412
REMARK  171  A    between atoms: _414  and  _416
REMARK  172  A    between atoms: _416  and  _417
REMARK  173  A    between atoms: _419  and  _421
REMARK  174  A    between atoms: _421  and  _422
REMARK  175  A    between atoms: _421  and  _424
REMARK  176  A    between atoms: _424  and  _425
REMARK  177  A    between atoms: _428  and  _430
REMARK  178  A    between atoms: _430  and  _431
REMARK  179  A    between atoms: _433  and  _435
REMARK  180  A    between atoms: _435  and  _436
REMARK  181  A    between atoms: _438  and  _440
REMARK  182  A    between atoms: _440  and  _441
REMARK  183  A    between atoms: _440  and  _443
REMARK  184  A    between atoms: _443  and  _444
REMARK  185  A    between atoms: _447  and  _449
REMARK  186  A    between atoms: _449  and  _450
REMARK  187  A    between atoms: _449  and  _452
REMARK  188  A    between atoms: _455  and  _457
REMARK  189  A    between atoms: _457  and  _458
REMARK  190  A    between atoms: _457  and  _460
REMARK  191  A    between atoms: _460  and  _461
REMARK  192  A    between atoms: _465  and  _466
REMARK  193  A    between atoms: _471  and  _473
REMARK  194  A    between atoms: _473  and  _474
REMARK  195  A    between atoms: _473  and  _476
REMARK  196  A    between atoms: _476  and  _477
REMARK  197  A    between atoms: _481  and  _482
REMARK  198  A    between atoms: _487  and  _489
REMARK  199  A    between atoms: _489  and  _490
REMARK  200  A    between atoms: _489  and  _492
REMARK  201  A    between atoms: _492  and  _493
REMARK  202  A    between atoms: _496  and  _498
REMARK  203  A    between atoms: _498  and  _499
REMARK  204  A    between atoms: _498  and  _501
REMARK  205  A    between atoms: _501  and  _502
REMARK  206  A    between atoms: _507  and  _509
REMARK  207  A    between atoms: _509  and  _510
REMARK  208  A    between atoms: _509  and  _512
REMARK  209  A    between atoms: _512  and  _513
REMARK  210  A    between atoms: _516  and  _518
REMARK  211  A    between atoms: _518  and  _519
REMARK  212  A    between atoms: _518  and  _521
REMARK  213  A    between atoms: _521  and  _522
REMARK  214  A    between atoms: _525  and  _527
REMARK  215  A    between atoms: _527  and  _528
REMARK  216  A    between atoms: _530  and  _532
REMARK  217  A    between atoms: _532  and  _533
REMARK  218  A    between atoms: _532  and  _535
REMARK  219  A    between atoms: _535  and  _536
REMARK  220  A    between atoms: _536  and  _537
REMARK  221  A    between atoms: _537  and  _538
REMARK  222  A    between atoms: _547  and  _549
REMARK  223  A    between atoms: _549  and  _550
REMARK  224  A    between atoms: _549  and  _552
REMARK  225  A    between atoms: _552  and  _553
REMARK                            x       y       z     vdW  Elec       q    Type
REMARK                         _______ _______ _______ _____ _____    ______ ____
ROOT
ATOM      1  O   HOH     1       5.338   3.752  50.814  0.00  0.00    +0.000 OA
ENDROOT
TORSDOF 0
REMARK  Name = ../refined-set-2016/3s56/3s56_pocket.pdb
REMARK  225 active torsions:
REMARK  status: ('A' for Active; 'I' for Inactive)
REMARK    1  A    between atoms: _1  and  _3
REMARK    2  A    between atoms: _3  and  _4
REMARK    3  A    between atoms: _3  and  _6
REMARK    4  A    between atoms: _6  and  _7
REMARK    5  A    between atoms: _7  and  _8
REMARK    6  A    between atoms: _8  and  _9
REMARK    7  A    between atoms: _18  and  _20
REMARK    8  A    between atoms: _20  and  _21
REMARK    9  A    between atoms: _20  and  _23
REMARK   10  A    between atoms: _23  and  _24
REMARK   11  A    between atoms: _27  and  _29
REMARK   12  A    between atoms: _29  and  _30
REMARK   13  A    between atoms: _29  and  _32
REMARK   14  A    between atoms: _32  and  _33
REMARK   15  A    between atoms: _36  and  _38
REMARK   16  A    between atoms: _38  and  _39
REMARK   17  A    between atoms: _38  and  _41
REMARK   18  A    between atoms: _41  and  _42
REMARK   19  A    between atoms: _45  and  _47
REMARK   20  A    between atoms: _47  and  _48
REMARK   21  A    between atoms: _47  and  _50
REMARK   22  A    between atoms: _50  and  _51
REMARK   23  A    between atoms: _54  and  _56
REMARK   24  A    between atoms: _56  and  _57
REMARK   25  A    between atoms: _59  and  _61
REMARK   26  A    between atoms: _61  and  _62
REMARK   27  A    between atoms: _65  and  _67
REMARK   28  A    between atoms: _67  and  _68
REMARK   29  A    between atoms: _67  and  _70
REMARK   30  A    between atoms: _70  and  _71
REMARK   31  A    between atoms: _74  and  _76
REMARK   32  A    between atoms: _76  and  _77
REMARK   33  A    between atoms: _76  and  _79
REMARK   34  A    between atoms: _79  and  _80
REMARK   35  A    between atoms: _83  and  _85
REMARK   36  A    between atoms: _85  and  _86
REMARK   37  A    between atoms: _85  and  _88
REMARK   38  A    between atoms: _88  and  _89
REMARK   39  A    between atoms: _92  and  _94
REMARK   40  A    between atoms: _94  and  _95
REMARK   41  A    between atoms: _94  and  _97
REMARK   42  A    between atoms: _97  and  _98
REMARK   43  A    between atoms: _101  and  _103
REMARK   44  A    between atoms: _103  and  _104
REMARK   45  A    between atoms: _103  and  _106
REMARK   46  A    between atoms: _106  and  _107
REMARK   47  A    between atoms: _107  and  _108
REMARK   48  A    between atoms: _108  and  _109
REMARK   49  A    between atoms: _109  and  _110
REMARK   50  A    between atoms: _114  and  _116
REMARK   51  A    between atoms: _116  and  _117
REMARK   52  A    between atoms: _116  and  _119
REMARK   53  A    between atoms: _119  and  _120
REMARK   54  A    between atoms: _120  and  _121
REMARK   55  A    between atoms: _123  and  _125
REMARK   56  A    between atoms: _125  and  _126
REMARK   57  A    between atoms: _125  and  _128
REMARK   58  A    between atoms: _131  and  _133
REMARK   59  A    between atoms: _133  and  _134
REMARK   60  A    between atoms: _136  and  _138
REMARK   61  A    between atoms: _138  and  _139
REMARK   62  A    between atoms: _141  and  _143
REMARK   63  A    between atoms: _143  and  _144
REMARK   64  A    between atoms: _143  and  _146
REMARK   65  A    between atoms: _146  and  _147
REMARK   66  A    between atoms: _150  and  _152
REMARK   67  A    between atoms: _152  and  _153
REMARK   68  A    between atoms: _155  and  _157
REMARK   69  A    between atoms: _157  and  _158
REMARK   70  A    between atoms: _160  and  _162
REMARK   71  A    between atoms: _162  and  _163
REMARK   72  A    between atoms: _162  and  _165
REMARK   73  A    between atoms: _165  and  _166
REMARK   74  A    between atoms: _172  and  _174
REMARK   75  A    between atoms: _174  and  _175
REMARK   76  A    between atoms: _174  and  _177
REMARK   77  A    between atoms: _177  and  _178
REMARK   78  A    between atoms: _181  and  _183
REMARK   79  A    between atoms: _183  and  _184
REMARK   80  A    between atoms: _183  and  _186
REMARK   81  A    between atoms: _189  and  _191
REMARK   82  A    between atoms: _191  and  _192
REMARK   83  A    between atoms: _191  and  _194
REMARK   84  A    between atoms: _194  and  _195
REMARK   85  A    between atoms: _199  and  _200
REMARK   86  A    between atoms: _205  and  _207
REMARK   87  A    between atoms: _207  and  _208
REMARK   88  A    between atoms: _207  and  _210
REMARK   89  A    between atoms: _210  and  _211
REMARK   90  A    between atoms: _215  and  _216
REMARK   91  A    between atoms: _221  and  _223
REMARK   92  A    between atoms: _223  and  _224
REMARK   93  A    between atoms: _223  and  _226
REMARK   94  A    between atoms: _226  and  _227
REMARK   95  A    between atoms: _230  and  _232
REMARK   96  A    between atoms: _232  and  _233
REMARK   97  A    between atoms: _232  and  _235
REMARK   98  A    between atoms: _235  and  _236
REMARK   99  A    between atoms: _241  and  _243
REMARK  100  A    between atoms: _243  and  _244
REMARK  101  A    between atoms: _243  and  _246
REMARK  102  A    between atoms: _246  and  _247
REMARK  103  A    between atoms: _250  and  _252
REMARK  104  A    between atoms: _252  and  _253
REMARK  105  A    between atoms: _252  and  _255
REMARK  106  A    between atoms: _255  and  _256
REMARK  107  A    between atoms: _259  and  _261
REMARK  108  A    between atoms: _261  and  _262
REMARK  109  A    between atoms: _264  and  _266
REMARK  110  A    between atoms: _266  and  _267
REMARK  111  A    between atoms: _266  and  _269
REMARK  112  A    between atoms: _269  and  _270
REMARK  113  A    between atoms: _270  and  _271
REMARK  114  A    between atoms: _271  and  _272
REMARK  115  A    between atoms: _281  and  _283
REMARK  116  A    between atoms: _283  and  _284
REMARK  117  A    between atoms: _283  and  _286
REMARK  118  A    between atoms: _286  and  _287
REMARK  119  A    between atoms: _292  and  _294
REMARK  120  A    between atoms: _294  and  _295
REMARK  121  A    between atoms: _294  and  _297
REMARK  122  A    between atoms: _297  and  _298
REMARK  123  A    between atoms: _298  and  _299
REMARK  124  A    between atoms: _299  and  _300
REMARK  125  A    between atoms: _309  and  _311
REMARK  126  A    between atoms: _311  and  _312
REMARK  127  A    between atoms: _311  and  _314
REMARK  128  A    between atoms: _314  and  _315
REMARK  129  A    between atoms: _318  and  _320
REMARK  130  A    between atoms: _320  and  _321
REMARK  131  A    between atoms: _320  and  _323
REMARK  132  A    between atoms: _323  and  _324
REMARK  133  A    between atoms: _327  and  _329
REMARK  134  A    between atoms: _329  and  _330
REMARK  135  A    between atoms: _329  and  _332
REMARK  136  A    between atoms: _332  and  _333
REMARK  137  A    between atoms: _336  and  _338
REMARK  138  A    between atoms: _338  and  _339
REMARK  139  A    between atoms: _338  and  _341
REMARK  140  A    between atoms: _341  and  _342
REMARK  141  A    between atoms: _345  and  _347
REMARK  142  A    between atoms: _347  and  _348
REMARK  143  A    between atoms: _350  and  _352
REMARK  144  A    between atoms: _352  and  _353
REMARK  145  A    between atoms: _356  and  _358
REMARK  146  A    between atoms: _358  and  _359
REMARK  147  A    between atoms: _358  and  _361
REMARK  148  A    between atoms: _361  and  _362
REMARK  149  A    between atoms: _365  and  _367
REMARK  150  A    between atoms: _367  and  _368
REMARK  151  A    between atoms: _367  and  _370
REMARK  152  A    between atoms: _370  and  _371
REMARK  153  A    between atoms: _374  and  _376
REMARK  154  A    between atoms: _376  and  _377
REMARK  155  A    between atoms: _376  and  _379
REMARK  156  A    between atoms: _379  and  _380
REMARK  157  A    between atoms: _383  and  _385
REMARK  158  A    between atoms: _385  and  _386
REMARK  159  A    between atoms: _385  and  _388
REMARK  160  A    between atoms: _388  and  _389
REMARK  161  A    between atoms: _392  and  _394
REMARK  162  A    between atoms: _394  and  _395
REMARK  163  A    between atoms: _394  and  _397
REMARK  164  A    between atoms: _397  and  _398
REMARK  165  A    between atoms: _398  and  _399
REMARK  166  A    between atoms: _401  and  _403
REMARK  167  A    between atoms: _403  and  _404
REMARK  168  A    between atoms: _403  and  _406
REMARK  169  A    between atoms: _409  and  _411
REMARK  170  A    between atoms: _411  and  _412
REMARK  171  A    between atoms: _414  and  _416
REMARK  172  A    between atoms: _416  and  _417
REMARK  173  A    between atoms: _419  and  _421
REMARK  174  A    between atoms: _421  and  _422
REMARK  175  A    between atoms: _421  and  _424
REMARK  176  A    between atoms: _424  and  _425
REMARK  177  A    between atoms: _428  and  _430
REMARK  178  A    between atoms: _430  and  _431
REMARK  179  A    between atoms: _433  and  _435
REMARK  180  A    between atoms: _435  and  _436
REMARK  181  A    between atoms: _438  and  _440
REMARK  182  A    between atoms: _440  and  _441
REMARK  183  A    between atoms: _440  and  _443
REMARK  184  A    between atoms: _443  and  _444
REMARK  185  A    between atoms: _447  and  _449
REMARK  186  A    between atoms: _449  and  _450
REMARK  187  A    between atoms: _449  and  _452
REMARK  188  A    between atoms: _455  and  _457
REMARK  189  A    between atoms: _457  and  _458
REMARK  190  A    between atoms: _457  and  _460
REMARK  191  A    between atoms: _460  and  _461
REMARK  192  A    between atoms: _465  and  _466
REMARK  193  A    between atoms: _471  and  _473
REMARK  194  A    between atoms: _473  and  _474
REMARK  195  A    between atoms: _473  and  _476
REMARK  196  A    between atoms: _476  and  _477
REMARK  197  A    between atoms: _481  and  _482
REMARK  198  A    between atoms: _487  and  _489
REMARK  199  A    between atoms: _489  and  _490
REMARK  200  A    between atoms: _489  and  _492
REMARK  201  A    between atoms: _492  and  _493
REMARK  202  A    between atoms: _496  and  _498
REMARK  203  A    between atoms: _498  and  _499
REMARK  204  A    between atoms: _498  and  _501
REMARK  205  A    between atoms: _501  and  _502
REMARK  206  A    between atoms: _507  and  _509
REMARK  207  A    between atoms: _509  and  _510
REMARK  208  A    between atoms: _509  and  _512
REMARK  209  A    between atoms: _512  and  _513
REMARK  210  A    between atoms: _516  and  _518
REMARK  211  A    between atoms: _518  and  _519
REMARK  212  A    between atoms: _518  and  _521
REMARK  213  A    between atoms: _521  and  _522
REMARK  214  A    between atoms: _525  and  _527
REMARK  215  A    between atoms: _527  and  _528
REMARK  216  A    between atoms: _530  and  _532
REMARK  217  A    between atoms: _532  and  _533
REMARK  218  A    between atoms: _532  and  _535
REMARK  219  A    between atoms: _535  and  _536
REMARK  220  A    between atoms: _536  and  _537
REMARK  221  A    between atoms: _537  and  _538
REMARK  222  A    between atoms: _547  and  _549
REMARK  223  A    between atoms: _549  and  _550
REMARK  224  A    between atoms: _549  and  _552
REMARK  225  A    between atoms: _552  and  _553
REMARK                            x       y       z     vdW  Elec       q    Type
REMARK                         _______ _______ _______ _____ _____    ______ ____
ROOT
ATOM      1  O   HOH     1       7.117   1.558  40.043  0.00  0.00    +0.000 OA
ENDROOT
TORSDOF 0
REMARK  Name = ../refined-set-2016/3s56/3s56_pocket.pdb
REMARK  225 active torsions:
REMARK  status: ('A' for Active; 'I' for Inactive)
REMARK    1  A    between atoms: _1  and  _3
REMARK    2  A    between atoms: _3  and  _4
REMARK    3  A    between atoms: _3  and  _6
REMARK    4  A    between atoms: _6  and  _7
REMARK    5  A    between atoms: _7  and  _8
REMARK    6  A    between atoms: _8  and  _9
REMARK    7  A    between atoms: _18  and  _20
REMARK    8  A    between atoms: _20  and  _21
REMARK    9  A    between atoms: _20  and  _23
REMARK   10  A    between atoms: _23  and  _24
REMARK   11  A    between atoms: _27  and  _29
REMARK   12  A    between atoms: _29  and  _30
REMARK   13  A    between atoms: _29  and  _32
REMARK   14  A    between atoms: _32  and  _33
REMARK   15  A    between atoms: _36  and  _38
REMARK   16  A    between atoms: _38  and  _39
REMARK   17  A    between atoms: _38  and  _41
REMARK   18  A    between atoms: _41  and  _42
REMARK   19  A    between atoms: _45  and  _47
REMARK   20  A    between atoms: _47  and  _48
REMARK   21  A    between atoms: _47  and  _50
REMARK   22  A    between atoms: _50  and  _51
REMARK   23  A    between atoms: _54  and  _56
REMARK   24  A    between atoms: _56  and  _57
REMARK   25  A    between atoms: _59  and  _61
REMARK   26  A    between atoms: _61  and  _62
REMARK   27  A    between atoms: _65  and  _67
REMARK   28  A    between atoms: _67  and  _68
REMARK   29  A    between atoms: _67  and  _70
REMARK   30  A    between atoms: _70  and  _71
REMARK   31  A    between atoms: _74  and  _76
REMARK   32  A    between atoms: _76  and  _77
REMARK   33  A    between atoms: _76  and  _79
REMARK   34  A    between atoms: _79  and  _80
REMARK   35  A    between atoms: _83  and  _85
REMARK   36  A    between atoms: _85  and  _86
REMARK   37  A    between atoms: _85  and  _88
REMARK   38  A    between atoms: _88  and  _89
REMARK   39  A    between atoms: _92  and  _94
REMARK   40  A    between atoms: _94  and  _95
REMARK   41  A    between atoms: _94  and  _97
REMARK   42  A    between atoms: _97  and  _98
REMARK   43  A    between atoms: _101  and  _103
REMARK   44  A    between atoms: _103  and  _104
REMARK   45  A    between atoms: _103  and  _106
REMARK   46  A    between atoms: _106  and  _107
REMARK   47  A    between atoms: _107  and  _108
REMARK   48  A    between atoms: _108  and  _109
REMARK   49  A    between atoms: _109  and  _110
REMARK   50  A    between atoms: _114  and  _116
REMARK   51  A    between atoms: _116  and  _117
REMARK   52  A    between atoms: _116  and  _119
REMARK   53  A    between atoms: _119  and  _120
REMARK   54  A    between atoms: _120  and  _121
REMARK   55  A    between atoms: _123  and  _125
REMARK   56  A    between atoms: _125  and  _126
REMARK   57  A    between atoms: _125  and  _128
REMARK   58  A    between atoms: _131  and  _133
REMARK   59  A    between atoms: _133  and  _134
REMARK   60  A    between atoms: _136  and  _138
REMARK   61  A    between atoms: _138  and  _139
REMARK   62  A    between atoms: _141  and  _143
REMARK   63  A    between atoms: _143  and  _144
REMARK   64  A    between atoms: _143  and  _146
REMARK   65  A    between atoms: _146  and  _147
REMARK   66  A    between atoms: _150  and  _152
REMARK   67  A    between atoms: _152  and  _153
REMARK   68  A    between atoms: _155  and  _157
REMARK   69  A    between atoms: _157  and  _158
REMARK   70  A    between atoms: _160  and  _162
REMARK   71  A    between atoms: _162  and  _163
REMARK   72  A    between atoms: _162  and  _165
REMARK   73  A    between atoms: _165  and  _166
REMARK   74  A    between atoms: _172  and  _174
REMARK   75  A    between atoms: _174  and  _175
REMARK   76  A    between atoms: _174  and  _177
REMARK   77  A    between atoms: _177  and  _178
REMARK   78  A    between atoms: _181  and  _183
REMARK   79  A    between atoms: _183  and  _184
REMARK   80  A    between atoms: _183  and  _186
REMARK   81  A    between atoms: _189  and  _191
REMARK   82  A    between atoms: _191  and  _192
REMARK   83  A    between atoms: _191  and  _194
REMARK   84  A    between atoms: _194  and  _195
REMARK   85  A    between atoms: _199  and  _200
REMARK   86  A    between atoms: _205  and  _207
REMARK   87  A    between atoms: _207  and  _208
REMARK   88  A    between atoms: _207  and  _210
REMARK   89  A    between atoms: _210  and  _211
REMARK   90  A    between atoms: _215  and  _216
REMARK   91  A    between atoms: _221  and  _223
REMARK   92  A    between atoms: _223  and  _224
REMARK   93  A    between atoms: _223  and  _226
REMARK   94  A    between atoms: _226  and  _227
REMARK   95  A    between atoms: _230  and  _232
REMARK   96  A    between atoms: _232  and  _233
REMARK   97  A    between atoms: _232  and  _235
REMARK   98  A    between atoms: _235  and  _236
REMARK   99  A    between atoms: _241  and  _243
REMARK  100  A    between atoms: _243  and  _244
REMARK  101  A    between atoms: _243  and  _246
REMARK  102  A    between atoms: _246  and  _247
REMARK  103  A    between atoms: _250  and  _252
REMARK  104  A    between atoms: _252  and  _253
REMARK  105  A    between atoms: _252  and  _255
REMARK  106  A    between atoms: _255  and  _256
REMARK  107  A    between atoms: _259  and  _261
REMARK  108  A    between atoms: _261  and  _262
REMARK  109  A    between atoms: _264  and  _266
REMARK  110  A    between atoms: _266  and  _267
REMARK  111  A    between atoms: _266  and  _269
REMARK  112  A    between atoms: _269  and  _270
REMARK  113  A    between atoms: _270  and  _271
REMARK  114  A    between atoms: _271  and  _272
REMARK  115  A    between atoms: _281  and  _283
REMARK  116  A    between atoms: _283  and  _284
REMARK  117  A    between atoms: _283  and  _286
REMARK  118  A    between atoms: _286  and  _287
REMARK  119  A    between atoms: _292  and  _294
REMARK  120  A    between atoms: _294  and  _295
REMARK  121  A    between atoms: _294  and  _297
REMARK  122  A    between atoms: _297  and  _298
REMARK  123  A    between atoms: _298  and  _299
REMARK  124  A    between atoms: _299  and  _300
REMARK  125  A    between atoms: _309  and  _311
REMARK  126  A    between atoms: _311  and  _312
REMARK  127  A    between atoms: _311  and  _314
REMARK  128  A    between atoms: _314  and  _315
REMARK  129  A    between atoms: _318  and  _320
REMARK  130  A    between atoms: _320  and  _321
REMARK  131  A    between atoms: _320  and  _323
REMARK  132  A    between atoms: _323  and  _324
REMARK  133  A    between atoms: _327  and  _329
REMARK  134  A    between atoms: _329  and  _330
REMARK  135  A    between atoms: _329  and  _332
REMARK  136  A    between atoms: _332  and  _333
REMARK  137  A    between atoms: _336  and  _338
REMARK  138  A    between atoms: _338  and  _339
REMARK  139  A    between atoms: _338  and  _341
REMARK  140  A    between atoms: _341  and  _342
REMARK  141  A    between atoms: _345  and  _347
REMARK  142  A    between atoms: _347  and  _348
REMARK  143  A    between atoms: _350  and  _352
REMARK  144  A    between atoms: _352  and  _353
REMARK  145  A    between atoms: _356  and  _358
REMARK  146  A    between atoms: _358  and  _359
REMARK  147  A    between atoms: _358  and  _361
REMARK  148  A    between atoms: _361  and  _362
REMARK  149  A    between atoms: _365  and  _367
REMARK  150  A    between atoms: _367  and  _368
REMARK  151  A    between atoms: _367  and  _370
REMARK  152  A    between atoms: _370  and  _371
REMARK  153  A    between atoms: _374  and  _376
REMARK  154  A    between atoms: _376  and  _377
REMARK  155  A    between atoms: _376  and  _379
REMARK  156  A    between atoms: _379  and  _380
REMARK  157  A    between atoms: _383  and  _385
REMARK  158  A    between atoms: _385  and  _386
REMARK  159  A    between atoms: _385  and  _388
REMARK  160  A    between atoms: _388  and  _389
REMARK  161  A    between atoms: _392  and  _394
REMARK  162  A    between atoms: _394  and  _395
REMARK  163  A    between atoms: _394  and  _397
REMARK  164  A    between atoms: _397  and  _398
REMARK  165  A    between atoms: _398  and  _399
REMARK  166  A    between atoms: _401  and  _403
REMARK  167  A    between atoms: _403  and  _404
REMARK  168  A    between atoms: _403  and  _406
REMARK  169  A    between atoms: _409  and  _411
REMARK  170  A    between atoms: _411  and  _412
REMARK  171  A    between atoms: _414  and  _416
REMARK  172  A    between atoms: _416  and  _417
REMARK  173  A    between atoms: _419  and  _421
REMARK  174  A    between atoms: _421  and  _422
REMARK  175  A    between atoms: _421  and  _424
REMARK  176  A    between atoms: _424  and  _425
REMARK  177  A    between atoms: _428  and  _430
REMARK  178  A    between atoms: _430  and  _431
REMARK  179  A    between atoms: _433  and  _435
REMARK  180  A    between atoms: _435  and  _436
REMARK  181  A    between atoms: _438  and  _440
REMARK  182  A    between atoms: _440  and  _441
REMARK  183  A    between atoms: _440  and  _443
REMARK  184  A    between atoms: _443  and  _444
REMARK  185  A    between atoms: _447  and  _449
REMARK  186  A    between atoms: _449  and  _450
REMARK  187  A    between atoms: _449  and  _452
REMARK  188  A    between atoms: _455  and  _457
REMARK  189  A    between atoms: _457  and  _458
REMARK  190  A    between atoms: _457  and  _460
REMARK  191  A    between atoms: _460  and  _461
REMARK  192  A    between atoms: _465  and  _466
REMARK  193  A    between atoms: _471  and  _473
REMARK  194  A    between atoms: _473  and  _474
REMARK  195  A    between atoms: _473  and  _476
REMARK  196  A    between atoms: _476  and  _477
REMARK  197  A    between atoms: _481  and  _482
REMARK  198  A    between atoms: _487  and  _489
REMARK  199  A    between atoms: _489  and  _490
REMARK  200  A    between atoms: _489  and  _492
REMARK  201  A    between atoms: _492  and  _493
REMARK  202  A    between atoms: _496  and  _498
REMARK  203  A    between atoms: _498  and  _499
REMARK  204  A    between atoms: _498  and  _501
REMARK  205  A    between atoms: _501  and  _502
REMARK  206  A    between atoms: _507  and  _509
REMARK  207  A    between atoms: _509  and  _510
REMARK  208  A    between atoms: _509  and  _512
REMARK  209  A    between atoms: _512  and  _513
REMARK  210  A    between atoms: _516  and  _518
REMARK  211  A    between atoms: _518  and  _519
REMARK  212  A    between atoms: _518  and  _521
REMARK  213  A    between atoms: _521  and  _522
REMARK  214  A    between atoms: _525  and  _527
REMARK  215  A    between atoms: _527  and  _528
REMARK  216  A    between atoms: _530  and  _532
REMARK  217  A    between atoms: _532  and  _533
REMARK  218  A    between atoms: _532  and  _535
REMARK  219  A    between atoms: _535  and  _536
REMARK  220  A    between atoms: _536  and  _537
REMARK  221  A    between atoms: _537  and  _538
REMARK  222  A    between atoms: _547  and  _549
REMARK  223  A    between atoms: _549  and  _550
REMARK  224  A    between atoms: _549  and  _552
REMARK  225  A    between atoms: _552  and  _553
REMARK                            x       y       z     vdW  Elec       q    Type
REMARK                         _______ _______ _______ _____ _____    ______ ____
ROOT
ATOM      1  O   HOH     1       0.940  10.373  37.788  0.00  0.00    +0.000 OA
ENDROOT
TORSDOF 0
REMARK  Name = ../refined-set-2016/3s56/3s56_pocket.pdb
REMARK  225 active torsions:
REMARK  status: ('A' for Active; 'I' for Inactive)
REMARK    1  A    between atoms: _1  and  _3
REMARK    2  A    between atoms: _3  and  _4
REMARK    3  A    between atoms: _3  and  _6
REMARK    4  A    between atoms: _6  and  _7
REMARK    5  A    between atoms: _7  and  _8
REMARK    6  A    between atoms: _8  and  _9
REMARK    7  A    between atoms: _18  and  _20
REMARK    8  A    between atoms: _20  and  _21
REMARK    9  A    between atoms: _20  and  _23
REMARK   10  A    between atoms: _23  and  _24
REMARK   11  A    between atoms: _27  and  _29
REMARK   12  A    between atoms: _29  and  _30
REMARK   13  A    between atoms: _29  and  _32
REMARK   14  A    between atoms: _32  and  _33
REMARK   15  A    between atoms: _36  and  _38
REMARK   16  A    between atoms: _38  and  _39
REMARK   17  A    between atoms: _38  and  _41
REMARK   18  A    between atoms: _41  and  _42
REMARK   19  A    between atoms: _45  and  _47
REMARK   20  A    between atoms: _47  and  _48
REMARK   21  A    between atoms: _47  and  _50
REMARK   22  A    between atoms: _50  and  _51
REMARK   23  A    between atoms: _54  and  _56
REMARK   24  A    between atoms: _56  and  _57
REMARK   25  A    between atoms: _59  and  _61
REMARK   26  A    between atoms: _61  and  _62
REMARK   27  A    between atoms: _65  and  _67
REMARK   28  A    between atoms: _67  and  _68
REMARK   29  A    between atoms: _67  and  _70
REMARK   30  A    between atoms: _70  and  _71
REMARK   31  A    between atoms: _74  and  _76
REMARK   32  A    between atoms: _76  and  _77
REMARK   33  A    between atoms: _76  and  _79
REMARK   34  A    between atoms: _79  and  _80
REMARK   35  A    between atoms: _83  and  _85
REMARK   36  A    between atoms: _85  and  _86
REMARK   37  A    between atoms: _85  and  _88
REMARK   38  A    between atoms: _88  and  _89
REMARK   39  A    between atoms: _92  and  _94
REMARK   40  A    between atoms: _94  and  _95
REMARK   41  A    between atoms: _94  and  _97
REMARK   42  A    between atoms: _97  and  _98
REMARK   43  A    between atoms: _101  and  _103
REMARK   44  A    between atoms: _103  and  _104
REMARK   45  A    between atoms: _103  and  _106
REMARK   46  A    between atoms: _106  and  _107
REMARK   47  A    between atoms: _107  and  _108
REMARK   48  A    between atoms: _108  and  _109
REMARK   49  A    between atoms: _109  and  _110
REMARK   50  A    between atoms: _114  and  _116
REMARK   51  A    between atoms: _116  and  _117
REMARK   52  A    between atoms: _116  and  _119
REMARK   53  A    between atoms: _119  and  _120
REMARK   54  A    between atoms: _120  and  _121
REMARK   55  A    between atoms: _123  and  _125
REMARK   56  A    between atoms: _125  and  _126
REMARK   57  A    between atoms: _125  and  _128
REMARK   58  A    between atoms: _131  and  _133
REMARK   59  A    between atoms: _133  and  _134
REMARK   60  A    between atoms: _136  and  _138
REMARK   61  A    between atoms: _138  and  _139
REMARK   62  A    between atoms: _141  and  _143
REMARK   63  A    between atoms: _143  and  _144
REMARK   64  A    between atoms: _143  and  _146
REMARK   65  A    between atoms: _146  and  _147
REMARK   66  A    between atoms: _150  and  _152
REMARK   67  A    between atoms: _152  and  _153
REMARK   68  A    between atoms: _155  and  _157
REMARK   69  A    between atoms: _157  and  _158
REMARK   70  A    between atoms: _160  and  _162
REMARK   71  A    between atoms: _162  and  _163
REMARK   72  A    between atoms: _162  and  _165
REMARK   73  A    between atoms: _165  and  _166
REMARK   74  A    between atoms: _172  and  _174
REMARK   75  A    between atoms: _174  and  _175
REMARK   76  A    between atoms: _174  and  _177
REMARK   77  A    between atoms: _177  and  _178
REMARK   78  A    between atoms: _181  and  _183
REMARK   79  A    between atoms: _183  and  _184
REMARK   80  A    between atoms: _183  and  _186
REMARK   81  A    between atoms: _189  and  _191
REMARK   82  A    between atoms: _191  and  _192
REMARK   83  A    between atoms: _191  and  _194
REMARK   84  A    between atoms: _194  and  _195
REMARK   85  A    between atoms: _199  and  _200
REMARK   86  A    between atoms: _205  and  _207
REMARK   87  A    between atoms: _207  and  _208
REMARK   88  A    between atoms: _207  and  _210
REMARK   89  A    between atoms: _210  and  _211
REMARK   90  A    between atoms: _215  and  _216
REMARK   91  A    between atoms: _221  and  _223
REMARK   92  A    between atoms: _223  and  _224
REMARK   93  A    between atoms: _223  and  _226
REMARK   94  A    between atoms: _226  and  _227
REMARK   95  A    between atoms: _230  and  _232
REMARK   96  A    between atoms: _232  and  _233
REMARK   97  A    between atoms: _232  and  _235
REMARK   98  A    between atoms: _235  and  _236
REMARK   99  A    between atoms: _241  and  _243
REMARK  100  A    between atoms: _243  and  _244
REMARK  101  A    between atoms: _243  and  _246
REMARK  102  A    between atoms: _246  and  _247
REMARK  103  A    between atoms: _250  and  _252
REMARK  104  A    between atoms: _252  and  _253
REMARK  105  A    between atoms: _252  and  _255
REMARK  106  A    between atoms: _255  and  _256
REMARK  107  A    between atoms: _259  and  _261
REMARK  108  A    between atoms: _261  and  _262
REMARK  109  A    between atoms: _264  and  _266
REMARK  110  A    between atoms: _266  and  _267
REMARK  111  A    between atoms: _266  and  _269
REMARK  112  A    between atoms: _269  and  _270
REMARK  113  A    between atoms: _270  and  _271
REMARK  114  A    between atoms: _271  and  _272
REMARK  115  A    between atoms: _281  and  _283
REMARK  116  A    between atoms: _283  and  _284
REMARK  117  A    between atoms: _283  and  _286
REMARK  118  A    between atoms: _286  and  _287
REMARK  119  A    between atoms: _292  and  _294
REMARK  120  A    between atoms: _294  and  _295
REMARK  121  A    between atoms: _294  and  _297
REMARK  122  A    between atoms: _297  and  _298
REMARK  123  A    between atoms: _298  and  _299
REMARK  124  A    between atoms: _299  and  _300
REMARK  125  A    between atoms: _309  and  _311
REMARK  126  A    between atoms: _311  and  _312
REMARK  127  A    between atoms: _311  and  _314
REMARK  128  A    between atoms: _314  and  _315
REMARK  129  A    between atoms: _318  and  _320
REMARK  130  A    between atoms: _320  and  _321
REMARK  131  A    between atoms: _320  and  _323
REMARK  132  A    between atoms: _323  and  _324
REMARK  133  A    between atoms: _327  and  _329
REMARK  134  A    between atoms: _329  and  _330
REMARK  135  A    between atoms: _329  and  _332
REMARK  136  A    between atoms: _332  and  _333
REMARK  137  A    between atoms: _336  and  _338
REMARK  138  A    between atoms: _338  and  _339
REMARK  139  A    between atoms: _338  and  _341
REMARK  140  A    between atoms: _341  and  _342
REMARK  141  A    between atoms: _345  and  _347
REMARK  142  A    between atoms: _347  and  _348
REMARK  143  A    between atoms: _350  and  _352
REMARK  144  A    between atoms: _352  and  _353
REMARK  145  A    between atoms: _356  and  _358
REMARK  146  A    between atoms: _358  and  _359
REMARK  147  A    between atoms: _358  and  _361
REMARK  148  A    between atoms: _361  and  _362
REMARK  149  A    between atoms: _365  and  _367
REMARK  150  A    between atoms: _367  and  _368
REMARK  151  A    between atoms: _367  and  _370
REMARK  152  A    between atoms: _370  and  _371
REMARK  153  A    between atoms: _374  and  _376
REMARK  154  A    between atoms: _376  and  _377
REMARK  155  A    between atoms: _376  and  _379
REMARK  156  A    between atoms: _379  and  _380
REMARK  157  A    between atoms: _383  and  _385
REMARK  158  A    between atoms: _385  and  _386
REMARK  159  A    between atoms: _385  and  _388
REMARK  160  A    between atoms: _388  and  _389
REMARK  161  A    between atoms: _392  and  _394
REMARK  162  A    between atoms: _394  and  _395
REMARK  163  A    between atoms: _394  and  _397
REMARK  164  A    between atoms: _397  and  _398
REMARK  165  A    between atoms: _398  and  _399
REMARK  166  A    between atoms: _401  and  _403
REMARK  167  A    between atoms: _403  and  _404
REMARK  168  A    between atoms: _403  and  _406
REMARK  169  A    between atoms: _409  and  _411
REMARK  170  A    between atoms: _411  and  _412
REMARK  171  A    between atoms: _414  and  _416
REMARK  172  A    between atoms: _416  and  _417
REMARK  173  A    between atoms: _419  and  _421
REMARK  174  A    between atoms: _421  and  _422
REMARK  175  A    between atoms: _421  and  _424
REMARK  176  A    between atoms: _424  and  _425
REMARK  177  A    between atoms: _428  and  _430
REMARK  178  A    between atoms: _430  and  _431
REMARK  179  A    between atoms: _433  and  _435
REMARK  180  A    between atoms: _435  and  _436
REMARK  181  A    between atoms: _438  and  _440
REMARK  182  A    between atoms: _440  and  _441
REMARK  183  A    between atoms: _440  and  _443
REMARK  184  A    between atoms: _443  and  _444
REMARK  185  A    between atoms: _447  and  _449
REMARK  186  A    between atoms: _449  and  _450
REMARK  187  A    between atoms: _449  and  _452
REMARK  188  A    between atoms: _455  and  _457
REMARK  189  A    between atoms: _457  and  _458
REMARK  190  A    between atoms: _457  and  _460
REMARK  191  A    between atoms: _460  and  _461
REMARK  192  A    between atoms: _465  and  _466
REMARK  193  A    between atoms: _471  and  _473
REMARK  194  A    between atoms: _473  and  _474
REMARK  195  A    between atoms: _473  and  _476
REMARK  196  A    between atoms: _476  and  _477
REMARK  197  A    between atoms: _481  and  _482
REMARK  198  A    between atoms: _487  and  _489
REMARK  199  A    between atoms: _489  and  _490
REMARK  200  A    between atoms: _489  and  _492
REMARK  201  A    between atoms: _492  and  _493
REMARK  202  A    between atoms: _496  and  _498
REMARK  203  A    between atoms: _498  and  _499
REMARK  204  A    between atoms: _498  and  _501
REMARK  205  A    between atoms: _501  and  _502
REMARK  206  A    between atoms: _507  and  _509
REMARK  207  A    between atoms: _509  and  _510
REMARK  208  A    between atoms: _509  and  _512
REMARK  209  A    between atoms: _512  and  _513
REMARK  210  A    between atoms: _516  and  _518
REMARK  211  A    between atoms: _518  and  _519
REMARK  212  A    between atoms: _518  and  _521
REMARK  213  A    between atoms: _521  and  _522
REMARK  214  A    between atoms: _525  and  _527
REMARK  215  A    between atoms: _527  and  _528
REMARK  216  A    between atoms: _530  and  _532
REMARK  217  A    between atoms: _532  and  _533
REMARK  218  A    between atoms: _532  and  _535
REMARK  219  A    between atoms: _535  and  _536
REMARK  220  A    between atoms: _536  and  _537
REMARK  221  A    between atoms: _537  and  _538
REMARK  222  A    between atoms: _547  and  _549
REMARK  223  A    between atoms: _549  and  _550
REMARK  224  A    between atoms: _549  and  _552
REMARK  225  A    between atoms: _552  and  _553
REMARK                            x       y       z     vdW  Elec       q    Type
REMARK                         _______ _______ _______ _____ _____    ______ ____
ROOT
ATOM      1  O   HOH     1       2.467   4.062  50.338  0.00  0.00    +0.000 OA
ENDROOT
TORSDOF 0
REMARK  Name = ../refined-set-2016/3s56/3s56_pocket.pdb
REMARK  225 active torsions:
REMARK  status: ('A' for Active; 'I' for Inactive)
REMARK    1  A    between atoms: _1  and  _3
REMARK    2  A    between atoms: _3  and  _4
REMARK    3  A    between atoms: _3  and  _6
REMARK    4  A    between atoms: _6  and  _7
REMARK    5  A    between atoms: _7  and  _8
REMARK    6  A    between atoms: _8  and  _9
REMARK    7  A    between atoms: _18  and  _20
REMARK    8  A    between atoms: _20  and  _21
REMARK    9  A    between atoms: _20  and  _23
REMARK   10  A    between atoms: _23  and  _24
REMARK   11  A    between atoms: _27  and  _29
REMARK   12  A    between atoms: _29  and  _30
REMARK   13  A    between atoms: _29  and  _32
REMARK   14  A    between atoms: _32  and  _33
REMARK   15  A    between atoms: _36  and  _38
REMARK   16  A    between atoms: _38  and  _39
REMARK   17  A    between atoms: _38  and  _41
REMARK   18  A    between atoms: _41  and  _42
REMARK   19  A    between atoms: _45  and  _47
REMARK   20  A    between atoms: _47  and  _48
REMARK   21  A    between atoms: _47  and  _50
REMARK   22  A    between atoms: _50  and  _51
REMARK   23  A    between atoms: _54  and  _56
REMARK   24  A    between atoms: _56  and  _57
REMARK   25  A    between atoms: _59  and  _61
REMARK   26  A    between atoms: _61  and  _62
REMARK   27  A    between atoms: _65  and  _67
REMARK   28  A    between atoms: _67  and  _68
REMARK   29  A    between atoms: _67  and  _70
REMARK   30  A    between atoms: _70  and  _71
REMARK   31  A    between atoms: _74  and  _76
REMARK   32  A    between atoms: _76  and  _77
REMARK   33  A    between atoms: _76  and  _79
REMARK   34  A    between atoms: _79  and  _80
REMARK   35  A    between atoms: _83  and  _85
REMARK   36  A    between atoms: _85  and  _86
REMARK   37  A    between atoms: _85  and  _88
REMARK   38  A    between atoms: _88  and  _89
REMARK   39  A    between atoms: _92  and  _94
REMARK   40  A    between atoms: _94  and  _95
REMARK   41  A    between atoms: _94  and  _97
REMARK   42  A    between atoms: _97  and  _98
REMARK   43  A    between atoms: _101  and  _103
REMARK   44  A    between atoms: _103  and  _104
REMARK   45  A    between atoms: _103  and  _106
REMARK   46  A    between atoms: _106  and  _107
REMARK   47  A    between atoms: _107  and  _108
REMARK   48  A    between atoms: _108  and  _109
REMARK   49  A    between atoms: _109  and  _110
REMARK   50  A    between atoms: _114  and  _116
REMARK   51  A    between atoms: _116  and  _117
REMARK   52  A    between atoms: _116  and  _119
REMARK   53  A    between atoms: _119  and  _120
REMARK   54  A    between atoms: _120  and  _121
REMARK   55  A    between atoms: _123  and  _125
REMARK   56  A    between atoms: _125  and  _126
REMARK   57  A    between atoms: _125  and  _128
REMARK   58  A    between atoms: _131  and  _133
REMARK   59  A    between atoms: _133  and  _134
REMARK   60  A    between atoms: _136  and  _138
REMARK   61  A    between atoms: _138  and  _139
REMARK   62  A    between atoms: _141  and  _143
REMARK   63  A    between atoms: _143  and  _144
REMARK   64  A    between atoms: _143  and  _146
REMARK   65  A    between atoms: _146  and  _147
REMARK   66  A    between atoms: _150  and  _152
REMARK   67  A    between atoms: _152  and  _153
REMARK   68  A    between atoms: _155  and  _157
REMARK   69  A    between atoms: _157  and  _158
REMARK   70  A    between atoms: _160  and  _162
REMARK   71  A    between atoms: _162  and  _163
REMARK   72  A    between atoms: _162  and  _165
REMARK   73  A    between atoms: _165  and  _166
REMARK   74  A    between atoms: _172  and  _174
REMARK   75  A    between atoms: _174  and  _175
REMARK   76  A    between atoms: _174  and  _177
REMARK   77  A    between atoms: _177  and  _178
REMARK   78  A    between atoms: _181  and  _183
REMARK   79  A    between atoms: _183  and  _184
REMARK   80  A    between atoms: _183  and  _186
REMARK   81  A    between atoms: _189  and  _191
REMARK   82  A    between atoms: _191  and  _192
REMARK   83  A    between atoms: _191  and  _194
REMARK   84  A    between atoms: _194  and  _195
REMARK   85  A    between atoms: _199  and  _200
REMARK   86  A    between atoms: _205  and  _207
REMARK   87  A    between atoms: _207  and  _208
REMARK   88  A    between atoms: _207  and  _210
REMARK   89  A    between atoms: _210  and  _211
REMARK   90  A    between atoms: _215  and  _216
REMARK   91  A    between atoms: _221  and  _223
REMARK   92  A    between atoms: _223  and  _224
REMARK   93  A    between atoms: _223  and  _226
REMARK   94  A    between atoms: _226  and  _227
REMARK   95  A    between atoms: _230  and  _232
REMARK   96  A    between atoms: _232  and  _233
REMARK   97  A    between atoms: _232  and  _235
REMARK   98  A    between atoms: _235  and  _236
REMARK   99  A    between atoms: _241  and  _243
REMARK  100  A    between atoms: _243  and  _244
REMARK  101  A    between atoms: _243  and  _246
REMARK  102  A    between atoms: _246  and  _247
REMARK  103  A    between atoms: _250  and  _252
REMARK  104  A    between atoms: _252  and  _253
REMARK  105  A    between atoms: _252  and  _255
REMARK  106  A    between atoms: _255  and  _256
REMARK  107  A    between atoms: _259  and  _261
REMARK  108  A    between atoms: _261  and  _262
REMARK  109  A    between atoms: _264  and  _266
REMARK  110  A    between atoms: _266  and  _267
REMARK  111  A    between atoms: _266  and  _269
REMARK  112  A    between atoms: _269  and  _270
REMARK  113  A    between atoms: _270  and  _271
REMARK  114  A    between atoms: _271  and  _272
REMARK  115  A    between atoms: _281  and  _283
REMARK  116  A    between atoms: _283  and  _284
REMARK  117  A    between atoms: _283  and  _286
REMARK  118  A    between atoms: _286  and  _287
REMARK  119  A    between atoms: _292  and  _294
REMARK  120  A    between atoms: _294  and  _295
REMARK  121  A    between atoms: _294  and  _297
REMARK  122  A    between atoms: _297  and  _298
REMARK  123  A    between atoms: _298  and  _299
REMARK  124  A    between atoms: _299  and  _300
REMARK  125  A    between atoms: _309  and  _311
REMARK  126  A    between atoms: _311  and  _312
REMARK  127  A    between atoms: _311  and  _314
REMARK  128  A    between atoms: _314  and  _315
REMARK  129  A    between atoms: _318  and  _320
REMARK  130  A    between atoms: _320  and  _321
REMARK  131  A    between atoms: _320  and  _323
REMARK  132  A    between atoms: _323  and  _324
REMARK  133  A    between atoms: _327  and  _329
REMARK  134  A    between atoms: _329  and  _330
REMARK  135  A    between atoms: _329  and  _332
REMARK  136  A    between atoms: _332  and  _333
REMARK  137  A    between atoms: _336  and  _338
REMARK  138  A    between atoms: _338  and  _339
REMARK  139  A    between atoms: _338  and  _341
REMARK  140  A    between atoms: _341  and  _342
REMARK  141  A    between atoms: _345  and  _347
REMARK  142  A    between atoms: _347  and  _348
REMARK  143  A    between atoms: _350  and  _352
REMARK  144  A    between atoms: _352  and  _353
REMARK  145  A    between atoms: _356  and  _358
REMARK  146  A    between atoms: _358  and  _359
REMARK  147  A    between atoms: _358  and  _361
REMARK  148  A    between atoms: _361  and  _362
REMARK  149  A    between atoms: _365  and  _367
REMARK  150  A    between atoms: _367  and  _368
REMARK  151  A    between atoms: _367  and  _370
REMARK  152  A    between atoms: _370  and  _371
REMARK  153  A    between atoms: _374  and  _376
REMARK  154  A    between atoms: _376  and  _377
REMARK  155  A    between atoms: _376  and  _379
REMARK  156  A    between atoms: _379  and  _380
REMARK  157  A    between atoms: _383  and  _385
REMARK  158  A    between atoms: _385  and  _386
REMARK  159  A    between atoms: _385  and  _388
REMARK  160  A    between atoms: _388  and  _389
REMARK  161  A    between atoms: _392  and  _394
REMARK  162  A    between atoms: _394  and  _395
REMARK  163  A    between atoms: _394  and  _397
REMARK  164  A    between atoms: _397  and  _398
REMARK  165  A    between atoms: _398  and  _399
REMARK  166  A    between atoms: _401  and  _403
REMARK  167  A    between atoms: _403  and  _404
REMARK  168  A    between atoms: _403  and  _406
REMARK  169  A    between atoms: _409  and  _411
REMARK  170  A    between atoms: _411  and  _412
REMARK  171  A    between atoms: _414  and  _416
REMARK  172  A    between atoms: _416  and  _417
REMARK  173  A    between atoms: _419  and  _421
REMARK  174  A    between atoms: _421  and  _422
REMARK  175  A    between atoms: _421  and  _424
REMARK  176  A    between atoms: _424  and  _425
REMARK  177  A    between atoms: _428  and  _430
REMARK  178  A    between atoms: _430  and  _431
REMARK  179  A    between atoms: _433  and  _435
REMARK  180  A    between atoms: _435  and  _436
REMARK  181  A    between atoms: _438  and  _440
REMARK  182  A    between atoms: _440  and  _441
REMARK  183  A    between atoms: _440  and  _443
REMARK  184  A    between atoms: _443  and  _444
REMARK  185  A    between atoms: _447  and  _449
REMARK  186  A    between atoms: _449  and  _450
REMARK  187  A    between atoms: _449  and  _452
REMARK  188  A    between atoms: _455  and  _457
REMARK  189  A    between atoms: _457  and  _458
REMARK  190  A    between atoms: _457  and  _460
REMARK  191  A    between atoms: _460  and  _461
REMARK  192  A    between atoms: _465  and  _466
REMARK  193  A    between atoms: _471  and  _473
REMARK  194  A    between atoms: _473  and  _474
REMARK  195  A    between atoms: _473  and  _476
REMARK  196  A    between atoms: _476  and  _477
REMARK  197  A    between atoms: _481  and  _482
REMARK  198  A    between atoms: _487  and  _489
REMARK  199  A    between atoms: _489  and  _490
REMARK  200  A    between atoms: _489  and  _492
REMARK  201  A    between atoms: _492  and  _493
REMARK  202  A    between atoms: _496  and  _498
REMARK  203  A    between atoms: _498  and  _499
REMARK  204  A    between atoms: _498  and  _501
REMARK  205  A    between atoms: _501  and  _502
REMARK  206  A    between atoms: _507  and  _509
REMARK  207  A    between atoms: _509  and  _510
REMARK  208  A    between atoms: _509  and  _512
REMARK  209  A    between atoms: _512  and  _513
REMARK  210  A    between atoms: _516  and  _518
REMARK  211  A    between atoms: _518  and  _519
REMARK  212  A    between atoms: _518  and  _521
REMARK  213  A    between atoms: _521  and  _522
REMARK  214  A    between atoms: _525  and  _527
REMARK  215  A    between atoms: _527  and  _528
REMARK  216  A    between atoms: _530  and  _532
REMARK  217  A    between atoms: _532  and  _533
REMARK  218  A    between atoms: _532  and  _535
REMARK  219  A    between atoms: _535  and  _536
REMARK  220  A    between atoms: _536  and  _537
REMARK  221  A    between atoms: _537  and  _538
REMARK  222  A    between atoms: _547  and  _549
REMARK  223  A    between atoms: _549  and  _550
REMARK  224  A    between atoms: _549  and  _552
REMARK  225  A    between atoms: _552  and  _553
REMARK                            x       y       z     vdW  Elec       q    Type
REMARK                         _______ _______ _______ _____ _____    ______ ____
ROOT
ATOM      1  O   HOH     1       7.357   4.071  40.072  0.00  0.00    +0.000 OA
ENDROOT
TORSDOF 0
REMARK  Name = ../refined-set-2016/3s56/3s56_pocket.pdb
REMARK  225 active torsions:
REMARK  status: ('A' for Active; 'I' for Inactive)
REMARK    1  A    between atoms: _1  and  _3
REMARK    2  A    between atoms: _3  and  _4
REMARK    3  A    between atoms: _3  and  _6
REMARK    4  A    between atoms: _6  and  _7
REMARK    5  A    between atoms: _7  and  _8
REMARK    6  A    between atoms: _8  and  _9
REMARK    7  A    between atoms: _18  and  _20
REMARK    8  A    between atoms: _20  and  _21
REMARK    9  A    between atoms: _20  and  _23
REMARK   10  A    between atoms: _23  and  _24
REMARK   11  A    between atoms: _27  and  _29
REMARK   12  A    between atoms: _29  and  _30
REMARK   13  A    between atoms: _29  and  _32
REMARK   14  A    between atoms: _32  and  _33
REMARK   15  A    between atoms: _36  and  _38
REMARK   16  A    between atoms: _38  and  _39
REMARK   17  A    between atoms: _38  and  _41
REMARK   18  A    between atoms: _41  and  _42
REMARK   19  A    between atoms: _45  and  _47
REMARK   20  A    between atoms: _47  and  _48
REMARK   21  A    between atoms: _47  and  _50
REMARK   22  A    between atoms: _50  and  _51
REMARK   23  A    between atoms: _54  and  _56
REMARK   24  A    between atoms: _56  and  _57
REMARK   25  A    between atoms: _59  and  _61
REMARK   26  A    between atoms: _61  and  _62
REMARK   27  A    between atoms: _65  and  _67
REMARK   28  A    between atoms: _67  and  _68
REMARK   29  A    between atoms: _67  and  _70
REMARK   30  A    between atoms: _70  and  _71
REMARK   31  A    between atoms: _74  and  _76
REMARK   32  A    between atoms: _76  and  _77
REMARK   33  A    between atoms: _76  and  _79
REMARK   34  A    between atoms: _79  and  _80
REMARK   35  A    between atoms: _83  and  _85
REMARK   36  A    between atoms: _85  and  _86
REMARK   37  A    between atoms: _85  and  _88
REMARK   38  A    between atoms: _88  and  _89
REMARK   39  A    between atoms: _92  and  _94
REMARK   40  A    between atoms: _94  and  _95
REMARK   41  A    between atoms: _94  and  _97
REMARK   42  A    between atoms: _97  and  _98
REMARK   43  A    between atoms: _101  and  _103
REMARK   44  A    between atoms: _103  and  _104
REMARK   45  A    between atoms: _103  and  _106
REMARK   46  A    between atoms: _106  and  _107
REMARK   47  A    between atoms: _107  and  _108
REMARK   48  A    between atoms: _108  and  _109
REMARK   49  A    between atoms: _109  and  _110
REMARK   50  A    between atoms: _114  and  _116
REMARK   51  A    between atoms: _116  and  _117
REMARK   52  A    between atoms: _116  and  _119
REMARK   53  A    between atoms: _119  and  _120
REMARK   54  A    between atoms: _120  and  _121
REMARK   55  A    between atoms: _123  and  _125
REMARK   56  A    between atoms: _125  and  _126
REMARK   57  A    between atoms: _125  and  _128
REMARK   58  A    between atoms: _131  and  _133
REMARK   59  A    between atoms: _133  and  _134
REMARK   60  A    between atoms: _136  and  _138
REMARK   61  A    between atoms: _138  and  _139
REMARK   62  A    between atoms: _141  and  _143
REMARK   63  A    between atoms: _143  and  _144
REMARK   64  A    between atoms: _143  and  _146
REMARK   65  A    between atoms: _146  and  _147
REMARK   66  A    between atoms: _150  and  _152
REMARK   67  A    between atoms: _152  and  _153
REMARK   68  A    between atoms: _155  and  _157
REMARK   69  A    between atoms: _157  and  _158
REMARK   70  A    between atoms: _160  and  _162
REMARK   71  A    between atoms: _162  and  _163
REMARK   72  A    between atoms: _162  and  _165
REMARK   73  A    between atoms: _165  and  _166
REMARK   74  A    between atoms: _172  and  _174
REMARK   75  A    between atoms: _174  and  _175
REMARK   76  A    between atoms: _174  and  _177
REMARK   77  A    between atoms: _177  and  _178
REMARK   78  A    between atoms: _181  and  _183
REMARK   79  A    between atoms: _183  and  _184
REMARK   80  A    between atoms: _183  and  _186
REMARK   81  A    between atoms: _189  and  _191
REMARK   82  A    between atoms: _191  and  _192
REMARK   83  A    between atoms: _191  and  _194
REMARK   84  A    between atoms: _194  and  _195
REMARK   85  A    between atoms: _199  and  _200
REMARK   86  A    between atoms: _205  and  _207
REMARK   87  A    between atoms: _207  and  _208
REMARK   88  A    between atoms: _207  and  _210
REMARK   89  A    between atoms: _210  and  _211
REMARK   90  A    between atoms: _215  and  _216
REMARK   91  A    between atoms: _221  and  _223
REMARK   92  A    between atoms: _223  and  _224
REMARK   93  A    between atoms: _223  and  _226
REMARK   94  A    between atoms: _226  and  _227
REMARK   95  A    between atoms: _230  and  _232
REMARK   96  A    between atoms: _232  and  _233
REMARK   97  A    between atoms: _232  and  _235
REMARK   98  A    between atoms: _235  and  _236
REMARK   99  A    between atoms: _241  and  _243
REMARK  100  A    between atoms: _243  and  _244
REMARK  101  A    between atoms: _243  and  _246
REMARK  102  A    between atoms: _246  and  _247
REMARK  103  A    between atoms: _250  and  _252
REMARK  104  A    between atoms: _252  and  _253
REMARK  105  A    between atoms: _252  and  _255
REMARK  106  A    between atoms: _255  and  _256
REMARK  107  A    between atoms: _259  and  _261
REMARK  108  A    between atoms: _261  and  _262
REMARK  109  A    between atoms: _264  and  _266
REMARK  110  A    between atoms: _266  and  _267
REMARK  111  A    between atoms: _266  and  _269
REMARK  112  A    between atoms: _269  and  _270
REMARK  113  A    between atoms: _270  and  _271
REMARK  114  A    between atoms: _271  and  _272
REMARK  115  A    between atoms: _281  and  _283
REMARK  116  A    between atoms: _283  and  _284
REMARK  117  A    between atoms: _283  and  _286
REMARK  118  A    between atoms: _286  and  _287
REMARK  119  A    between atoms: _292  and  _294
REMARK  120  A    between atoms: _294  and  _295
REMARK  121  A    between atoms: _294  and  _297
REMARK  122  A    between atoms: _297  and  _298
REMARK  123  A    between atoms: _298  and  _299
REMARK  124  A    between atoms: _299  and  _300
REMARK  125  A    between atoms: _309  and  _311
REMARK  126  A    between atoms: _311  and  _312
REMARK  127  A    between atoms: _311  and  _314
REMARK  128  A    between atoms: _314  and  _315
REMARK  129  A    between atoms: _318  and  _320
REMARK  130  A    between atoms: _320  and  _321
REMARK  131  A    between atoms: _320  and  _323
REMARK  132  A    between atoms: _323  and  _324
REMARK  133  A    between atoms: _327  and  _329
REMARK  134  A    between atoms: _329  and  _330
REMARK  135  A    between atoms: _329  and  _332
REMARK  136  A    between atoms: _332  and  _333
REMARK  137  A    between atoms: _336  and  _338
REMARK  138  A    between atoms: _338  and  _339
REMARK  139  A    between atoms: _338  and  _341
REMARK  140  A    between atoms: _341  and  _342
REMARK  141  A    between atoms: _345  and  _347
REMARK  142  A    between atoms: _347  and  _348
REMARK  143  A    between atoms: _350  and  _352
REMARK  144  A    between atoms: _352  and  _353
REMARK  145  A    between atoms: _356  and  _358
REMARK  146  A    between atoms: _358  and  _359
REMARK  147  A    between atoms: _358  and  _361
REMARK  148  A    between atoms: _361  and  _362
REMARK  149  A    between atoms: _365  and  _367
REMARK  150  A    between atoms: _367  and  _368
REMARK  151  A    between atoms: _367  and  _370
REMARK  152  A    between atoms: _370  and  _371
REMARK  153  A    between atoms: _374  and  _376
REMARK  154  A    between atoms: _376  and  _377
REMARK  155  A    between atoms: _376  and  _379
REMARK  156  A    between atoms: _379  and  _380
REMARK  157  A    between atoms: _383  and  _385
REMARK  158  A    between atoms: _385  and  _386
REMARK  159  A    between atoms: _385  and  _388
REMARK  160  A    between atoms: _388  and  _389
REMARK  161  A    between atoms: _392  and  _394
REMARK  162  A    between atoms: _394  and  _395
REMARK  163  A    between atoms: _394  and  _397
REMARK  164  A    between atoms: _397  and  _398
REMARK  165  A    between atoms: _398  and  _399
REMARK  166  A    between atoms: _401  and  _403
REMARK  167  A    between atoms: _403  and  _404
REMARK  168  A    between atoms: _403  and  _406
REMARK  169  A    between atoms: _409  and  _411
REMARK  170  A    between atoms: _411  and  _412
REMARK  171  A    between atoms: _414  and  _416
REMARK  172  A    between atoms: _416  and  _417
REMARK  173  A    between atoms: _419  and  _421
REMARK  174  A    between atoms: _421  and  _422
REMARK  175  A    between atoms: _421  and  _424
REMARK  176  A    between atoms: _424  and  _425
REMARK  177  A    between atoms: _428  and  _430
REMARK  178  A    between atoms: _430  and  _431
REMARK  179  A    between atoms: _433  and  _435
REMARK  180  A    between atoms: _435  and  _436
REMARK  181  A    between atoms: _438  and  _440
REMARK  182  A    between atoms: _440  and  _441
REMARK  183  A    between atoms: _440  and  _443
REMARK  184  A    between atoms: _443  and  _444
REMARK  185  A    between atoms: _447  and  _449
REMARK  186  A    between atoms: _449  and  _450
REMARK  187  A    between atoms: _449  and  _452
REMARK  188  A    between atoms: _455  and  _457
REMARK  189  A    between atoms: _457  and  _458
REMARK  190  A    between atoms: _457  and  _460
REMARK  191  A    between atoms: _460  and  _461
REMARK  192  A    between atoms: _465  and  _466
REMARK  193  A    between atoms: _471  and  _473
REMARK  194  A    between atoms: _473  and  _474
REMARK  195  A    between atoms: _473  and  _476
REMARK  196  A    between atoms: _476  and  _477
REMARK  197  A    between atoms: _481  and  _482
REMARK  198  A    between atoms: _487  and  _489
REMARK  199  A    between atoms: _489  and  _490
REMARK  200  A    between atoms: _489  and  _492
REMARK  201  A    between atoms: _492  and  _493
REMARK  202  A    between atoms: _496  and  _498
REMARK  203  A    between atoms: _498  and  _499
REMARK  204  A    between atoms: _498  and  _501
REMARK  205  A    between atoms: _501  and  _502
REMARK  206  A    between atoms: _507  and  _509
REMARK  207  A    between atoms: _509  and  _510
REMARK  208  A    between atoms: _509  and  _512
REMARK  209  A    between atoms: _512  and  _513
REMARK  210  A    between atoms: _516  and  _518
REMARK  211  A    between atoms: _518  and  _519
REMARK  212  A    between atoms: _518  and  _521
REMARK  213  A    between atoms: _521  and  _522
REMARK  214  A    between atoms: _525  and  _527
REMARK  215  A    between atoms: _527  and  _528
REMARK  216  A    between atoms: _530  and  _532
REMARK  217  A    between atoms: _532  and  _533
REMARK  218  A    between atoms: _532  and  _535
REMARK  219  A    between atoms: _535  and  _536
REMARK  220  A    between atoms: _536  and  _537
REMARK  221  A    between atoms: _537  and  _538
REMARK  222  A    between atoms: _547  and  _549
REMARK  223  A    between atoms: _549  and  _550
REMARK  224  A    between atoms: _549  and  _552
REMARK  225  A    between atoms: _552  and  _553
REMARK                            x       y       z     vdW  Elec       q    Type
REMARK                         _______ _______ _______ _____ _____    ______ ____
ROOT
ATOM      1  O   HOH     1       5.317  15.654  34.498  0.00  0.00    +0.000 OA
ENDROOT
TORSDOF 0
REMARK  Name = ../refined-set-2016/3s56/3s56_pocket.pdb
REMARK  225 active torsions:
REMARK  status: ('A' for Active; 'I' for Inactive)
REMARK    1  A    between atoms: _1  and  _3
REMARK    2  A    between atoms: _3  and  _4
REMARK    3  A    between atoms: _3  and  _6
REMARK    4  A    between atoms: _6  and  _7
REMARK    5  A    between atoms: _7  and  _8
REMARK    6  A    between atoms: _8  and  _9
REMARK    7  A    between atoms: _18  and  _20
REMARK    8  A    between atoms: _20  and  _21
REMARK    9  A    between atoms: _20  and  _23
REMARK   10  A    between atoms: _23  and  _24
REMARK   11  A    between atoms: _27  and  _29
REMARK   12  A    between atoms: _29  and  _30
REMARK   13  A    between atoms: _29  and  _32
REMARK   14  A    between atoms: _32  and  _33
REMARK   15  A    between atoms: _36  and  _38
REMARK   16  A    between atoms: _38  and  _39
REMARK   17  A    between atoms: _38  and  _41
REMARK   18  A    between atoms: _41  and  _42
REMARK   19  A    between atoms: _45  and  _47
REMARK   20  A    between atoms: _47  and  _48
REMARK   21  A    between atoms: _47  and  _50
REMARK   22  A    between atoms: _50  and  _51
REMARK   23  A    between atoms: _54  and  _56
REMARK   24  A    between atoms: _56  and  _57
REMARK   25  A    between atoms: _59  and  _61
REMARK   26  A    between atoms: _61  and  _62
REMARK   27  A    between atoms: _65  and  _67
REMARK   28  A    between atoms: _67  and  _68
REMARK   29  A    between atoms: _67  and  _70
REMARK   30  A    between atoms: _70  and  _71
REMARK   31  A    between atoms: _74  and  _76
REMARK   32  A    between atoms: _76  and  _77
REMARK   33  A    between atoms: _76  and  _79
REMARK   34  A    between atoms: _79  and  _80
REMARK   35  A    between atoms: _83  and  _85
REMARK   36  A    between atoms: _85  and  _86
REMARK   37  A    between atoms: _85  and  _88
REMARK   38  A    between atoms: _88  and  _89
REMARK   39  A    between atoms: _92  and  _94
REMARK   40  A    between atoms: _94  and  _95
REMARK   41  A    between atoms: _94  and  _97
REMARK   42  A    between atoms: _97  and  _98
REMARK   43  A    between atoms: _101  and  _103
REMARK   44  A    between atoms: _103  and  _104
REMARK   45  A    between atoms: _103  and  _106
REMARK   46  A    between atoms: _106  and  _107
REMARK   47  A    between atoms: _107  and  _108
REMARK   48  A    between atoms: _108  and  _109
REMARK   49  A    between atoms: _109  and  _110
REMARK   50  A    between atoms: _114  and  _116
REMARK   51  A    between atoms: _116  and  _117
REMARK   52  A    between atoms: _116  and  _119
REMARK   53  A    between atoms: _119  and  _120
REMARK   54  A    between atoms: _120  and  _121
REMARK   55  A    between atoms: _123  and  _125
REMARK   56  A    between atoms: _125  and  _126
REMARK   57  A    between atoms: _125  and  _128
REMARK   58  A    between atoms: _131  and  _133
REMARK   59  A    between atoms: _133  and  _134
REMARK   60  A    between atoms: _136  and  _138
REMARK   61  A    between atoms: _138  and  _139
REMARK   62  A    between atoms: _141  and  _143
REMARK   63  A    between atoms: _143  and  _144
REMARK   64  A    between atoms: _143  and  _146
REMARK   65  A    between atoms: _146  and  _147
REMARK   66  A    between atoms: _150  and  _152
REMARK   67  A    between atoms: _152  and  _153
REMARK   68  A    between atoms: _155  and  _157
REMARK   69  A    between atoms: _157  and  _158
REMARK   70  A    between atoms: _160  and  _162
REMARK   71  A    between atoms: _162  and  _163
REMARK   72  A    between atoms: _162  and  _165
REMARK   73  A    between atoms: _165  and  _166
REMARK   74  A    between atoms: _172  and  _174
REMARK   75  A    between atoms: _174  and  _175
REMARK   76  A    between atoms: _174  and  _177
REMARK   77  A    between atoms: _177  and  _178
REMARK   78  A    between atoms: _181  and  _183
REMARK   79  A    between atoms: _183  and  _184
REMARK   80  A    between atoms: _183  and  _186
REMARK   81  A    between atoms: _189  and  _191
REMARK   82  A    between atoms: _191  and  _192
REMARK   83  A    between atoms: _191  and  _194
REMARK   84  A    between atoms: _194  and  _195
REMARK   85  A    between atoms: _199  and  _200
REMARK   86  A    between atoms: _205  and  _207
REMARK   87  A    between atoms: _207  and  _208
REMARK   88  A    between atoms: _207  and  _210
REMARK   89  A    between atoms: _210  and  _211
REMARK   90  A    between atoms: _215  and  _216
REMARK   91  A    between atoms: _221  and  _223
REMARK   92  A    between atoms: _223  and  _224
REMARK   93  A    between atoms: _223  and  _226
REMARK   94  A    between atoms: _226  and  _227
REMARK   95  A    between atoms: _230  and  _232
REMARK   96  A    between atoms: _232  and  _233
REMARK   97  A    between atoms: _232  and  _235
REMARK   98  A    between atoms: _235  and  _236
REMARK   99  A    between atoms: _241  and  _243
REMARK  100  A    between atoms: _243  and  _244
REMARK  101  A    between atoms: _243  and  _246
REMARK  102  A    between atoms: _246  and  _247
REMARK  103  A    between atoms: _250  and  _252
REMARK  104  A    between atoms: _252  and  _253
REMARK  105  A    between atoms: _252  and  _255
REMARK  106  A    between atoms: _255  and  _256
REMARK  107  A    between atoms: _259  and  _261
REMARK  108  A    between atoms: _261  and  _262
REMARK  109  A    between atoms: _264  and  _266
REMARK  110  A    between atoms: _266  and  _267
REMARK  111  A    between atoms: _266  and  _269
REMARK  112  A    between atoms: _269  and  _270
REMARK  113  A    between atoms: _270  and  _271
REMARK  114  A    between atoms: _271  and  _272
REMARK  115  A    between atoms: _281  and  _283
REMARK  116  A    between atoms: _283  and  _284
REMARK  117  A    between atoms: _283  and  _286
REMARK  118  A    between atoms: _286  and  _287
REMARK  119  A    between atoms: _292  and  _294
REMARK  120  A    between atoms: _294  and  _295
REMARK  121  A    between atoms: _294  and  _297
REMARK  122  A    between atoms: _297  and  _298
REMARK  123  A    between atoms: _298  and  _299
REMARK  124  A    between atoms: _299  and  _300
REMARK  125  A    between atoms: _309  and  _311
REMARK  126  A    between atoms: _311  and  _312
REMARK  127  A    between atoms: _311  and  _314
REMARK  128  A    between atoms: _314  and  _315
REMARK  129  A    between atoms: _318  and  _320
REMARK  130  A    between atoms: _320  and  _321
REMARK  131  A    between atoms: _320  and  _323
REMARK  132  A    between atoms: _323  and  _324
REMARK  133  A    between atoms: _327  and  _329
REMARK  134  A    between atoms: _329  and  _330
REMARK  135  A    between atoms: _329  and  _332
REMARK  136  A    between atoms: _332  and  _333
REMARK  137  A    between atoms: _336  and  _338
REMARK  138  A    between atoms: _338  and  _339
REMARK  139  A    between atoms: _338  and  _341
REMARK  140  A    between atoms: _341  and  _342
REMARK  141  A    between atoms: _345  and  _347
REMARK  142  A    between atoms: _347  and  _348
REMARK  143  A    between atoms: _350  and  _352
REMARK  144  A    between atoms: _352  and  _353
REMARK  145  A    between atoms: _356  and  _358
REMARK  146  A    between atoms: _358  and  _359
REMARK  147  A    between atoms: _358  and  _361
REMARK  148  A    between atoms: _361  and  _362
REMARK  149  A    between atoms: _365  and  _367
REMARK  150  A    between atoms: _367  and  _368
REMARK  151  A    between atoms: _367  and  _370
REMARK  152  A    between atoms: _370  and  _371
REMARK  153  A    between atoms: _374  and  _376
REMARK  154  A    between atoms: _376  and  _377
REMARK  155  A    between atoms: _376  and  _379
REMARK  156  A    between atoms: _379  and  _380
REMARK  157  A    between atoms: _383  and  _385
REMARK  158  A    between atoms: _385  and  _386
REMARK  159  A    between atoms: _385  and  _388
REMARK  160  A    between atoms: _388  and  _389
REMARK  161  A    between atoms: _392  and  _394
REMARK  162  A    between atoms: _394  and  _395
REMARK  163  A    between atoms: _394  and  _397
REMARK  164  A    between atoms: _397  and  _398
REMARK  165  A    between atoms: _398  and  _399
REMARK  166  A    between atoms: _401  and  _403
REMARK  167  A    between atoms: _403  and  _404
REMARK  168  A    between atoms: _403  and  _406
REMARK  169  A    between atoms: _409  and  _411
REMARK  170  A    between atoms: _411  and  _412
REMARK  171  A    between atoms: _414  and  _416
REMARK  172  A    between atoms: _416  and  _417
REMARK  173  A    between atoms: _419  and  _421
REMARK  174  A    between atoms: _421  and  _422
REMARK  175  A    between atoms: _421  and  _424
REMARK  176  A    between atoms: _424  and  _425
REMARK  177  A    between atoms: _428  and  _430
REMARK  178  A    between atoms: _430  and  _431
REMARK  179  A    between atoms: _433  and  _435
REMARK  180  A    between atoms: _435  and  _436
REMARK  181  A    between atoms: _438  and  _440
REMARK  182  A    between atoms: _440  and  _441
REMARK  183  A    between atoms: _440  and  _443
REMARK  184  A    between atoms: _443  and  _444
REMARK  185  A    between atoms: _447  and  _449
REMARK  186  A    between atoms: _449  and  _450
REMARK  187  A    between atoms: _449  and  _452
REMARK  188  A    between atoms: _455  and  _457
REMARK  189  A    between atoms: _457  and  _458
REMARK  190  A    between atoms: _457  and  _460
REMARK  191  A    between atoms: _460  and  _461
REMARK  192  A    between atoms: _465  and  _466
REMARK  193  A    between atoms: _471  and  _473
REMARK  194  A    between atoms: _473  and  _474
REMARK  195  A    between atoms: _473  and  _476
REMARK  196  A    between atoms: _476  and  _477
REMARK  197  A    between atoms: _481  and  _482
REMARK  198  A    between atoms: _487  and  _489
REMARK  199  A    between atoms: _489  and  _490
REMARK  200  A    between atoms: _489  and  _492
REMARK  201  A    between atoms: _492  and  _493
REMARK  202  A    between atoms: _496  and  _498
REMARK  203  A    between atoms: _498  and  _499
REMARK  204  A    between atoms: _498  and  _501
REMARK  205  A    between atoms: _501  and  _502
REMARK  206  A    between atoms: _507  and  _509
REMARK  207  A    between atoms: _509  and  _510
REMARK  208  A    between atoms: _509  and  _512
REMARK  209  A    between atoms: _512  and  _513
REMARK  210  A    between atoms: _516  and  _518
REMARK  211  A    between atoms: _518  and  _519
REMARK  212  A    between atoms: _518  and  _521
REMARK  213  A    between atoms: _521  and  _522
REMARK  214  A    between atoms: _525  and  _527
REMARK  215  A    between atoms: _527  and  _528
REMARK  216  A    between atoms: _530  and  _532
REMARK  217  A    between atoms: _532  and  _533
REMARK  218  A    between atoms: _532  and  _535
REMARK  219  A    between atoms: _535  and  _536
REMARK  220  A    between atoms: _536  and  _537
REMARK  221  A    between atoms: _537  and  _538
REMARK  222  A    between atoms: _547  and  _549
REMARK  223  A    between atoms: _549  and  _550
REMARK  224  A    between atoms: _549  and  _552
REMARK  225  A    between atoms: _552  and  _553
REMARK                            x       y       z     vdW  Elec       q    Type
REMARK                         _______ _______ _______ _____ _____    ______ ____
ROOT
ATOM      1  O   HOH     1      -3.271  16.683  41.265  0.00  0.00    +0.000 OA
ENDROOT
TORSDOF 0
REMARK  Name = ../refined-set-2016/3s56/3s56_pocket.pdb
REMARK  225 active torsions:
REMARK  status: ('A' for Active; 'I' for Inactive)
REMARK    1  A    between atoms: _1  and  _3
REMARK    2  A    between atoms: _3  and  _4
REMARK    3  A    between atoms: _3  and  _6
REMARK    4  A    between atoms: _6  and  _7
REMARK    5  A    between atoms: _7  and  _8
REMARK    6  A    between atoms: _8  and  _9
REMARK    7  A    between atoms: _18  and  _20
REMARK    8  A    between atoms: _20  and  _21
REMARK    9  A    between atoms: _20  and  _23
REMARK   10  A    between atoms: _23  and  _24
REMARK   11  A    between atoms: _27  and  _29
REMARK   12  A    between atoms: _29  and  _30
REMARK   13  A    between atoms: _29  and  _32
REMARK   14  A    between atoms: _32  and  _33
REMARK   15  A    between atoms: _36  and  _38
REMARK   16  A    between atoms: _38  and  _39
REMARK   17  A    between atoms: _38  and  _41
REMARK   18  A    between atoms: _41  and  _42
REMARK   19  A    between atoms: _45  and  _47
REMARK   20  A    between atoms: _47  and  _48
REMARK   21  A    between atoms: _47  and  _50
REMARK   22  A    between atoms: _50  and  _51
REMARK   23  A    between atoms: _54  and  _56
REMARK   24  A    between atoms: _56  and  _57
REMARK   25  A    between atoms: _59  and  _61
REMARK   26  A    between atoms: _61  and  _62
REMARK   27  A    between atoms: _65  and  _67
REMARK   28  A    between atoms: _67  and  _68
REMARK   29  A    between atoms: _67  and  _70
REMARK   30  A    between atoms: _70  and  _71
REMARK   31  A    between atoms: _74  and  _76
REMARK   32  A    between atoms: _76  and  _77
REMARK   33  A    between atoms: _76  and  _79
REMARK   34  A    between atoms: _79  and  _80
REMARK   35  A    between atoms: _83  and  _85
REMARK   36  A    between atoms: _85  and  _86
REMARK   37  A    between atoms: _85  and  _88
REMARK   38  A    between atoms: _88  and  _89
REMARK   39  A    between atoms: _92  and  _94
REMARK   40  A    between atoms: _94  and  _95
REMARK   41  A    between atoms: _94  and  _97
REMARK   42  A    between atoms: _97  and  _98
REMARK   43  A    between atoms: _101  and  _103
REMARK   44  A    between atoms: _103  and  _104
REMARK   45  A    between atoms: _103  and  _106
REMARK   46  A    between atoms: _106  and  _107
REMARK   47  A    between atoms: _107  and  _108
REMARK   48  A    between atoms: _108  and  _109
REMARK   49  A    between atoms: _109  and  _110
REMARK   50  A    between atoms: _114  and  _116
REMARK   51  A    between atoms: _116  and  _117
REMARK   52  A    between atoms: _116  and  _119
REMARK   53  A    between atoms: _119  and  _120
REMARK   54  A    between atoms: _120  and  _121
REMARK   55  A    between atoms: _123  and  _125
REMARK   56  A    between atoms: _125  and  _126
REMARK   57  A    between atoms: _125  and  _128
REMARK   58  A    between atoms: _131  and  _133
REMARK   59  A    between atoms: _133  and  _134
REMARK   60  A    between atoms: _136  and  _138
REMARK   61  A    between atoms: _138  and  _139
REMARK   62  A    between atoms: _141  and  _143
REMARK   63  A    between atoms: _143  and  _144
REMARK   64  A    between atoms: _143  and  _146
REMARK   65  A    between atoms: _146  and  _147
REMARK   66  A    between atoms: _150  and  _152
REMARK   67  A    between atoms: _152  and  _153
REMARK   68  A    between atoms: _155  and  _157
REMARK   69  A    between atoms: _157  and  _158
REMARK   70  A    between atoms: _160  and  _162
REMARK   71  A    between atoms: _162  and  _163
REMARK   72  A    between atoms: _162  and  _165
REMARK   73  A    between atoms: _165  and  _166
REMARK   74  A    between atoms: _172  and  _174
REMARK   75  A    between atoms: _174  and  _175
REMARK   76  A    between atoms: _174  and  _177
REMARK   77  A    between atoms: _177  and  _178
REMARK   78  A    between atoms: _181  and  _183
REMARK   79  A    between atoms: _183  and  _184
REMARK   80  A    between atoms: _183  and  _186
REMARK   81  A    between atoms: _189  and  _191
REMARK   82  A    between atoms: _191  and  _192
REMARK   83  A    between atoms: _191  and  _194
REMARK   84  A    between atoms: _194  and  _195
REMARK   85  A    between atoms: _199  and  _200
REMARK   86  A    between atoms: _205  and  _207
REMARK   87  A    between atoms: _207  and  _208
REMARK   88  A    between atoms: _207  and  _210
REMARK   89  A    between atoms: _210  and  _211
REMARK   90  A    between atoms: _215  and  _216
REMARK   91  A    between atoms: _221  and  _223
REMARK   92  A    between atoms: _223  and  _224
REMARK   93  A    between atoms: _223  and  _226
REMARK   94  A    between atoms: _226  and  _227
REMARK   95  A    between atoms: _230  and  _232
REMARK   96  A    between atoms: _232  and  _233
REMARK   97  A    between atoms: _232  and  _235
REMARK   98  A    between atoms: _235  and  _236
REMARK   99  A    between atoms: _241  and  _243
REMARK  100  A    between atoms: _243  and  _244
REMARK  101  A    between atoms: _243  and  _246
REMARK  102  A    between atoms: _246  and  _247
REMARK  103  A    between atoms: _250  and  _252
REMARK  104  A    between atoms: _252  and  _253
REMARK  105  A    between atoms: _252  and  _255
REMARK  106  A    between atoms: _255  and  _256
REMARK  107  A    between atoms: _259  and  _261
REMARK  108  A    between atoms: _261  and  _262
REMARK  109  A    between atoms: _264  and  _266
REMARK  110  A    between atoms: _266  and  _267
REMARK  111  A    between atoms: _266  and  _269
REMARK  112  A    between atoms: _269  and  _270
REMARK  113  A    between atoms: _270  and  _271
REMARK  114  A    between atoms: _271  and  _272
REMARK  115  A    between atoms: _281  and  _283
REMARK  116  A    between atoms: _283  and  _284
REMARK  117  A    between atoms: _283  and  _286
REMARK  118  A    between atoms: _286  and  _287
REMARK  119  A    between atoms: _292  and  _294
REMARK  120  A    between atoms: _294  and  _295
REMARK  121  A    between atoms: _294  and  _297
REMARK  122  A    between atoms: _297  and  _298
REMARK  123  A    between atoms: _298  and  _299
REMARK  124  A    between atoms: _299  and  _300
REMARK  125  A    between atoms: _309  and  _311
REMARK  126  A    between atoms: _311  and  _312
REMARK  127  A    between atoms: _311  and  _314
REMARK  128  A    between atoms: _314  and  _315
REMARK  129  A    between atoms: _318  and  _320
REMARK  130  A    between atoms: _320  and  _321
REMARK  131  A    between atoms: _320  and  _323
REMARK  132  A    between atoms: _323  and  _324
REMARK  133  A    between atoms: _327  and  _329
REMARK  134  A    between atoms: _329  and  _330
REMARK  135  A    between atoms: _329  and  _332
REMARK  136  A    between atoms: _332  and  _333
REMARK  137  A    between atoms: _336  and  _338
REMARK  138  A    between atoms: _338  and  _339
REMARK  139  A    between atoms: _338  and  _341
REMARK  140  A    between atoms: _341  and  _342
REMARK  141  A    between atoms: _345  and  _347
REMARK  142  A    between atoms: _347  and  _348
REMARK  143  A    between atoms: _350  and  _352
REMARK  144  A    between atoms: _352  and  _353
REMARK  145  A    between atoms: _356  and  _358
REMARK  146  A    between atoms: _358  and  _359
REMARK  147  A    between atoms: _358  and  _361
REMARK  148  A    between atoms: _361  and  _362
REMARK  149  A    between atoms: _365  and  _367
REMARK  150  A    between atoms: _367  and  _368
REMARK  151  A    between atoms: _367  and  _370
REMARK  152  A    between atoms: _370  and  _371
REMARK  153  A    between atoms: _374  and  _376
REMARK  154  A    between atoms: _376  and  _377
REMARK  155  A    between atoms: _376  and  _379
REMARK  156  A    between atoms: _379  and  _380
REMARK  157  A    between atoms: _383  and  _385
REMARK  158  A    between atoms: _385  and  _386
REMARK  159  A    between atoms: _385  and  _388
REMARK  160  A    between atoms: _388  and  _389
REMARK  161  A    between atoms: _392  and  _394
REMARK  162  A    between atoms: _394  and  _395
REMARK  163  A    between atoms: _394  and  _397
REMARK  164  A    between atoms: _397  and  _398
REMARK  165  A    between atoms: _398  and  _399
REMARK  166  A    between atoms: _401  and  _403
REMARK  167  A    between atoms: _403  and  _404
REMARK  168  A    between atoms: _403  and  _406
REMARK  169  A    between atoms: _409  and  _411
REMARK  170  A    between atoms: _411  and  _412
REMARK  171  A    between atoms: _414  and  _416
REMARK  172  A    between atoms: _416  and  _417
REMARK  173  A    between atoms: _419  and  _421
REMARK  174  A    between atoms: _421  and  _422
REMARK  175  A    between atoms: _421  and  _424
REMARK  176  A    between atoms: _424  and  _425
REMARK  177  A    between atoms: _428  and  _430
REMARK  178  A    between atoms: _430  and  _431
REMARK  179  A    between atoms: _433  and  _435
REMARK  180  A    between atoms: _435  and  _436
REMARK  181  A    between atoms: _438  and  _440
REMARK  182  A    between atoms: _440  and  _441
REMARK  183  A    between atoms: _440  and  _443
REMARK  184  A    between atoms: _443  and  _444
REMARK  185  A    between atoms: _447  and  _449
REMARK  186  A    between atoms: _449  and  _450
REMARK  187  A    between atoms: _449  and  _452
REMARK  188  A    between atoms: _455  and  _457
REMARK  189  A    between atoms: _457  and  _458
REMARK  190  A    between atoms: _457  and  _460
REMARK  191  A    between atoms: _460  and  _461
REMARK  192  A    between atoms: _465  and  _466
REMARK  193  A    between atoms: _471  and  _473
REMARK  194  A    between atoms: _473  and  _474
REMARK  195  A    between atoms: _473  and  _476
REMARK  196  A    between atoms: _476  and  _477
REMARK  197  A    between atoms: _481  and  _482
REMARK  198  A    between atoms: _487  and  _489
REMARK  199  A    between atoms: _489  and  _490
REMARK  200  A    between atoms: _489  and  _492
REMARK  201  A    between atoms: _492  and  _493
REMARK  202  A    between atoms: _496  and  _498
REMARK  203  A    between atoms: _498  and  _499
REMARK  204  A    between atoms: _498  and  _501
REMARK  205  A    between atoms: _501  and  _502
REMARK  206  A    between atoms: _507  and  _509
REMARK  207  A    between atoms: _509  and  _510
REMARK  208  A    between atoms: _509  and  _512
REMARK  209  A    between atoms: _512  and  _513
REMARK  210  A    between atoms: _516  and  _518
REMARK  211  A    between atoms: _518  and  _519
REMARK  212  A    between atoms: _518  and  _521
REMARK  213  A    between atoms: _521  and  _522
REMARK  214  A    between atoms: _525  and  _527
REMARK  215  A    between atoms: _527  and  _528
REMARK  216  A    between atoms: _530  and  _532
REMARK  217  A    between atoms: _532  and  _533
REMARK  218  A    between atoms: _532  and  _535
REMARK  219  A    between atoms: _535  and  _536
REMARK  220  A    between atoms: _536  and  _537
REMARK  221  A    between atoms: _537  and  _538
REMARK  222  A    between atoms: _547  and  _549
REMARK  223  A    between atoms: _549  and  _550
REMARK  224  A    between atoms: _549  and  _552
REMARK  225  A    between atoms: _552  and  _553
REMARK                            x       y       z     vdW  Elec       q    Type
REMARK                         _______ _______ _______ _____ _____    ______ ____
ROOT
ATOM      1  O   HOH     1      -6.506  12.513  31.360  0.00  0.00    +0.000 OA
ENDROOT
TORSDOF 0
REMARK  Name = ../refined-set-2016/3s56/3s56_pocket.pdb
REMARK  225 active torsions:
REMARK  status: ('A' for Active; 'I' for Inactive)
REMARK    1  A    between atoms: _1  and  _3
REMARK    2  A    between atoms: _3  and  _4
REMARK    3  A    between atoms: _3  and  _6
REMARK    4  A    between atoms: _6  and  _7
REMARK    5  A    between atoms: _7  and  _8
REMARK    6  A    between atoms: _8  and  _9
REMARK    7  A    between atoms: _18  and  _20
REMARK    8  A    between atoms: _20  and  _21
REMARK    9  A    between atoms: _20  and  _23
REMARK   10  A    between atoms: _23  and  _24
REMARK   11  A    between atoms: _27  and  _29
REMARK   12  A    between atoms: _29  and  _30
REMARK   13  A    between atoms: _29  and  _32
REMARK   14  A    between atoms: _32  and  _33
REMARK   15  A    between atoms: _36  and  _38
REMARK   16  A    between atoms: _38  and  _39
REMARK   17  A    between atoms: _38  and  _41
REMARK   18  A    between atoms: _41  and  _42
REMARK   19  A    between atoms: _45  and  _47
REMARK   20  A    between atoms: _47  and  _48
REMARK   21  A    between atoms: _47  and  _50
REMARK   22  A    between atoms: _50  and  _51
REMARK   23  A    between atoms: _54  and  _56
REMARK   24  A    between atoms: _56  and  _57
REMARK   25  A    between atoms: _59  and  _61
REMARK   26  A    between atoms: _61  and  _62
REMARK   27  A    between atoms: _65  and  _67
REMARK   28  A    between atoms: _67  and  _68
REMARK   29  A    between atoms: _67  and  _70
REMARK   30  A    between atoms: _70  and  _71
REMARK   31  A    between atoms: _74  and  _76
REMARK   32  A    between atoms: _76  and  _77
REMARK   33  A    between atoms: _76  and  _79
REMARK   34  A    between atoms: _79  and  _80
REMARK   35  A    between atoms: _83  and  _85
REMARK   36  A    between atoms: _85  and  _86
REMARK   37  A    between atoms: _85  and  _88
REMARK   38  A    between atoms: _88  and  _89
REMARK   39  A    between atoms: _92  and  _94
REMARK   40  A    between atoms: _94  and  _95
REMARK   41  A    between atoms: _94  and  _97
REMARK   42  A    between atoms: _97  and  _98
REMARK   43  A    between atoms: _101  and  _103
REMARK   44  A    between atoms: _103  and  _104
REMARK   45  A    between atoms: _103  and  _106
REMARK   46  A    between atoms: _106  and  _107
REMARK   47  A    between atoms: _107  and  _108
REMARK   48  A    between atoms: _108  and  _109
REMARK   49  A    between atoms: _109  and  _110
REMARK   50  A    between atoms: _114  and  _116
REMARK   51  A    between atoms: _116  and  _117
REMARK   52  A    between atoms: _116  and  _119
REMARK   53  A    between atoms: _119  and  _120
REMARK   54  A    between atoms: _120  and  _121
REMARK   55  A    between atoms: _123  and  _125
REMARK   56  A    between atoms: _125  and  _126
REMARK   57  A    between atoms: _125  and  _128
REMARK   58  A    between atoms: _131  and  _133
REMARK   59  A    between atoms: _133  and  _134
REMARK   60  A    between atoms: _136  and  _138
REMARK   61  A    between atoms: _138  and  _139
REMARK   62  A    between atoms: _141  and  _143
REMARK   63  A    between atoms: _143  and  _144
REMARK   64  A    between atoms: _143  and  _146
REMARK   65  A    between atoms: _146  and  _147
REMARK   66  A    between atoms: _150  and  _152
REMARK   67  A    between atoms: _152  and  _153
REMARK   68  A    between atoms: _155  and  _157
REMARK   69  A    between atoms: _157  and  _158
REMARK   70  A    between atoms: _160  and  _162
REMARK   71  A    between atoms: _162  and  _163
REMARK   72  A    between atoms: _162  and  _165
REMARK   73  A    between atoms: _165  and  _166
REMARK   74  A    between atoms: _172  and  _174
REMARK   75  A    between atoms: _174  and  _175
REMARK   76  A    between atoms: _174  and  _177
REMARK   77  A    between atoms: _177  and  _178
REMARK   78  A    between atoms: _181  and  _183
REMARK   79  A    between atoms: _183  and  _184
REMARK   80  A    between atoms: _183  and  _186
REMARK   81  A    between atoms: _189  and  _191
REMARK   82  A    between atoms: _191  and  _192
REMARK   83  A    between atoms: _191  and  _194
REMARK   84  A    between atoms: _194  and  _195
REMARK   85  A    between atoms: _199  and  _200
REMARK   86  A    between atoms: _205  and  _207
REMARK   87  A    between atoms: _207  and  _208
REMARK   88  A    between atoms: _207  and  _210
REMARK   89  A    between atoms: _210  and  _211
REMARK   90  A    between atoms: _215  and  _216
REMARK   91  A    between atoms: _221  and  _223
REMARK   92  A    between atoms: _223  and  _224
REMARK   93  A    between atoms: _223  and  _226
REMARK   94  A    between atoms: _226  and  _227
REMARK   95  A    between atoms: _230  and  _232
REMARK   96  A    between atoms: _232  and  _233
REMARK   97  A    between atoms: _232  and  _235
REMARK   98  A    between atoms: _235  and  _236
REMARK   99  A    between atoms: _241  and  _243
REMARK  100  A    between atoms: _243  and  _244
REMARK  101  A    between atoms: _243  and  _246
REMARK  102  A    between atoms: _246  and  _247
REMARK  103  A    between atoms: _250  and  _252
REMARK  104  A    between atoms: _252  and  _253
REMARK  105  A    between atoms: _252  and  _255
REMARK  106  A    between atoms: _255  and  _256
REMARK  107  A    between atoms: _259  and  _261
REMARK  108  A    between atoms: _261  and  _262
REMARK  109  A    between atoms: _264  and  _266
REMARK  110  A    between atoms: _266  and  _267
REMARK  111  A    between atoms: _266  and  _269
REMARK  112  A    between atoms: _269  and  _270
REMARK  113  A    between atoms: _270  and  _271
REMARK  114  A    between atoms: _271  and  _272
REMARK  115  A    between atoms: _281  and  _283
REMARK  116  A    between atoms: _283  and  _284
REMARK  117  A    between atoms: _283  and  _286
REMARK  118  A    between atoms: _286  and  _287
REMARK  119  A    between atoms: _292  and  _294
REMARK  120  A    between atoms: _294  and  _295
REMARK  121  A    between atoms: _294  and  _297
REMARK  122  A    between atoms: _297  and  _298
REMARK  123  A    between atoms: _298  and  _299
REMARK  124  A    between atoms: _299  and  _300
REMARK  125  A    between atoms: _309  and  _311
REMARK  126  A    between atoms: _311  and  _312
REMARK  127  A    between atoms: _311  and  _314
REMARK  128  A    between atoms: _314  and  _315
REMARK  129  A    between atoms: _318  and  _320
REMARK  130  A    between atoms: _320  and  _321
REMARK  131  A    between atoms: _320  and  _323
REMARK  132  A    between atoms: _323  and  _324
REMARK  133  A    between atoms: _327  and  _329
REMARK  134  A    between atoms: _329  and  _330
REMARK  135  A    between atoms: _329  and  _332
REMARK  136  A    between atoms: _332  and  _333
REMARK  137  A    between atoms: _336  and  _338
REMARK  138  A    between atoms: _338  and  _339
REMARK  139  A    between atoms: _338  and  _341
REMARK  140  A    between atoms: _341  and  _342
REMARK  141  A    between atoms: _345  and  _347
REMARK  142  A    between atoms: _347  and  _348
REMARK  143  A    between atoms: _350  and  _352
REMARK  144  A    between atoms: _352  and  _353
REMARK  145  A    between atoms: _356  and  _358
REMARK  146  A    between atoms: _358  and  _359
REMARK  147  A    between atoms: _358  and  _361
REMARK  148  A    between atoms: _361  and  _362
REMARK  149  A    between atoms: _365  and  _367
REMARK  150  A    between atoms: _367  and  _368
REMARK  151  A    between atoms: _367  and  _370
REMARK  152  A    between atoms: _370  and  _371
REMARK  153  A    between atoms: _374  and  _376
REMARK  154  A    between atoms: _376  and  _377
REMARK  155  A    between atoms: _376  and  _379
REMARK  156  A    between atoms: _379  and  _380
REMARK  157  A    between atoms: _383  and  _385
REMARK  158  A    between atoms: _385  and  _386
REMARK  159  A    between atoms: _385  and  _388
REMARK  160  A    between atoms: _388  and  _389
REMARK  161  A    between atoms: _392  and  _394
REMARK  162  A    between atoms: _394  and  _395
REMARK  163  A    between atoms: _394  and  _397
REMARK  164  A    between atoms: _397  and  _398
REMARK  165  A    between atoms: _398  and  _399
REMARK  166  A    between atoms: _401  and  _403
REMARK  167  A    between atoms: _403  and  _404
REMARK  168  A    between atoms: _403  and  _406
REMARK  169  A    between atoms: _409  and  _411
REMARK  170  A    between atoms: _411  and  _412
REMARK  171  A    between atoms: _414  and  _416
REMARK  172  A    between atoms: _416  and  _417
REMARK  173  A    between atoms: _419  and  _421
REMARK  174  A    between atoms: _421  and  _422
REMARK  175  A    between atoms: _421  and  _424
REMARK  176  A    between atoms: _424  and  _425
REMARK  177  A    between atoms: _428  and  _430
REMARK  178  A    between atoms: _430  and  _431
REMARK  179  A    between atoms: _433  and  _435
REMARK  180  A    between atoms: _435  and  _436
REMARK  181  A    between atoms: _438  and  _440
REMARK  182  A    between atoms: _440  and  _441
REMARK  183  A    between atoms: _440  and  _443
REMARK  184  A    between atoms: _443  and  _444
REMARK  185  A    between atoms: _447  and  _449
REMARK  186  A    between atoms: _449  and  _450
REMARK  187  A    between atoms: _449  and  _452
REMARK  188  A    between atoms: _455  and  _457
REMARK  189  A    between atoms: _457  and  _458
REMARK  190  A    between atoms: _457  and  _460
REMARK  191  A    between atoms: _460  and  _461
REMARK  192  A    between atoms: _465  and  _466
REMARK  193  A    between atoms: _471  and  _473
REMARK  194  A    between atoms: _473  and  _474
REMARK  195  A    between atoms: _473  and  _476
REMARK  196  A    between atoms: _476  and  _477
REMARK  197  A    between atoms: _481  and  _482
REMARK  198  A    between atoms: _487  and  _489
REMARK  199  A    between atoms: _489  and  _490
REMARK  200  A    between atoms: _489  and  _492
REMARK  201  A    between atoms: _492  and  _493
REMARK  202  A    between atoms: _496  and  _498
REMARK  203  A    between atoms: _498  and  _499
REMARK  204  A    between atoms: _498  and  _501
REMARK  205  A    between atoms: _501  and  _502
REMARK  206  A    between atoms: _507  and  _509
REMARK  207  A    between atoms: _509  and  _510
REMARK  208  A    between atoms: _509  and  _512
REMARK  209  A    between atoms: _512  and  _513
REMARK  210  A    between atoms: _516  and  _518
REMARK  211  A    between atoms: _518  and  _519
REMARK  212  A    between atoms: _518  and  _521
REMARK  213  A    between atoms: _521  and  _522
REMARK  214  A    between atoms: _525  and  _527
REMARK  215  A    between atoms: _527  and  _528
REMARK  216  A    between atoms: _530  and  _532
REMARK  217  A    between atoms: _532  and  _533
REMARK  218  A    between atoms: _532  and  _535
REMARK  219  A    between atoms: _535  and  _536
REMARK  220  A    between atoms: _536  and  _537
REMARK  221  A    between atoms: _537  and  _538
REMARK  222  A    between atoms: _547  and  _549
REMARK  223  A    between atoms: _549  and  _550
REMARK  224  A    between atoms: _549  and  _552
REMARK  225  A    between atoms: _552  and  _553
REMARK                            x       y       z     vdW  Elec       q    Type
REMARK                         _______ _______ _______ _____ _____    ______ ____
ROOT
ATOM      1  O   HOH     1      -4.197  10.149  32.629  0.00  0.00    +0.000 OA
ENDROOT
TORSDOF 0
REMARK  Name = ../refined-set-2016/3s56/3s56_pocket.pdb
REMARK  225 active torsions:
REMARK  status: ('A' for Active; 'I' for Inactive)
REMARK    1  A    between atoms: _1  and  _3
REMARK    2  A    between atoms: _3  and  _4
REMARK    3  A    between atoms: _3  and  _6
REMARK    4  A    between atoms: _6  and  _7
REMARK    5  A    between atoms: _7  and  _8
REMARK    6  A    between atoms: _8  and  _9
REMARK    7  A    between atoms: _18  and  _20
REMARK    8  A    between atoms: _20  and  _21
REMARK    9  A    between atoms: _20  and  _23
REMARK   10  A    between atoms: _23  and  _24
REMARK   11  A    between atoms: _27  and  _29
REMARK   12  A    between atoms: _29  and  _30
REMARK   13  A    between atoms: _29  and  _32
REMARK   14  A    between atoms: _32  and  _33
REMARK   15  A    between atoms: _36  and  _38
REMARK   16  A    between atoms: _38  and  _39
REMARK   17  A    between atoms: _38  and  _41
REMARK   18  A    between atoms: _41  and  _42
REMARK   19  A    between atoms: _45  and  _47
REMARK   20  A    between atoms: _47  and  _48
REMARK   21  A    between atoms: _47  and  _50
REMARK   22  A    between atoms: _50  and  _51
REMARK   23  A    between atoms: _54  and  _56
REMARK   24  A    between atoms: _56  and  _57
REMARK   25  A    between atoms: _59  and  _61
REMARK   26  A    between atoms: _61  and  _62
REMARK   27  A    between atoms: _65  and  _67
REMARK   28  A    between atoms: _67  and  _68
REMARK   29  A    between atoms: _67  and  _70
REMARK   30  A    between atoms: _70  and  _71
REMARK   31  A    between atoms: _74  and  _76
REMARK   32  A    between atoms: _76  and  _77
REMARK   33  A    between atoms: _76  and  _79
REMARK   34  A    between atoms: _79  and  _80
REMARK   35  A    between atoms: _83  and  _85
REMARK   36  A    between atoms: _85  and  _86
REMARK   37  A    between atoms: _85  and  _88
REMARK   38  A    between atoms: _88  and  _89
REMARK   39  A    between atoms: _92  and  _94
REMARK   40  A    between atoms: _94  and  _95
REMARK   41  A    between atoms: _94  and  _97
REMARK   42  A    between atoms: _97  and  _98
REMARK   43  A    between atoms: _101  and  _103
REMARK   44  A    between atoms: _103  and  _104
REMARK   45  A    between atoms: _103  and  _106
REMARK   46  A    between atoms: _106  and  _107
REMARK   47  A    between atoms: _107  and  _108
REMARK   48  A    between atoms: _108  and  _109
REMARK   49  A    between atoms: _109  and  _110
REMARK   50  A    between atoms: _114  and  _116
REMARK   51  A    between atoms: _116  and  _117
REMARK   52  A    between atoms: _116  and  _119
REMARK   53  A    between atoms: _119  and  _120
REMARK   54  A    between atoms: _120  and  _121
REMARK   55  A    between atoms: _123  and  _125
REMARK   56  A    between atoms: _125  and  _126
REMARK   57  A    between atoms: _125  and  _128
REMARK   58  A    between atoms: _131  and  _133
REMARK   59  A    between atoms: _133  and  _134
REMARK   60  A    between atoms: _136  and  _138
REMARK   61  A    between atoms: _138  and  _139
REMARK   62  A    between atoms: _141  and  _143
REMARK   63  A    between atoms: _143  and  _144
REMARK   64  A    between atoms: _143  and  _146
REMARK   65  A    between atoms: _146  and  _147
REMARK   66  A    between atoms: _150  and  _152
REMARK   67  A    between atoms: _152  and  _153
REMARK   68  A    between atoms: _155  and  _157
REMARK   69  A    between atoms: _157  and  _158
REMARK   70  A    between atoms: _160  and  _162
REMARK   71  A    between atoms: _162  and  _163
REMARK   72  A    between atoms: _162  and  _165
REMARK   73  A    between atoms: _165  and  _166
REMARK   74  A    between atoms: _172  and  _174
REMARK   75  A    between atoms: _174  and  _175
REMARK   76  A    between atoms: _174  and  _177
REMARK   77  A    between atoms: _177  and  _178
REMARK   78  A    between atoms: _181  and  _183
REMARK   79  A    between atoms: _183  and  _184
REMARK   80  A    between atoms: _183  and  _186
REMARK   81  A    between atoms: _189  and  _191
REMARK   82  A    between atoms: _191  and  _192
REMARK   83  A    between atoms: _191  and  _194
REMARK   84  A    between atoms: _194  and  _195
REMARK   85  A    between atoms: _199  and  _200
REMARK   86  A    between atoms: _205  and  _207
REMARK   87  A    between atoms: _207  and  _208
REMARK   88  A    between atoms: _207  and  _210
REMARK   89  A    between atoms: _210  and  _211
REMARK   90  A    between atoms: _215  and  _216
REMARK   91  A    between atoms: _221  and  _223
REMARK   92  A    between atoms: _223  and  _224
REMARK   93  A    between atoms: _223  and  _226
REMARK   94  A    between atoms: _226  and  _227
REMARK   95  A    between atoms: _230  and  _232
REMARK   96  A    between atoms: _232  and  _233
REMARK   97  A    between atoms: _232  and  _235
REMARK   98  A    between atoms: _235  and  _236
REMARK   99  A    between atoms: _241  and  _243
REMARK  100  A    between atoms: _243  and  _244
REMARK  101  A    between atoms: _243  and  _246
REMARK  102  A    between atoms: _246  and  _247
REMARK  103  A    between atoms: _250  and  _252
REMARK  104  A    between atoms: _252  and  _253
REMARK  105  A    between atoms: _252  and  _255
REMARK  106  A    between atoms: _255  and  _256
REMARK  107  A    between atoms: _259  and  _261
REMARK  108  A    between atoms: _261  and  _262
REMARK  109  A    between atoms: _264  and  _266
REMARK  110  A    between atoms: _266  and  _267
REMARK  111  A    between atoms: _266  and  _269
REMARK  112  A    between atoms: _269  and  _270
REMARK  113  A    between atoms: _270  and  _271
REMARK  114  A    between atoms: _271  and  _272
REMARK  115  A    between atoms: _281  and  _283
REMARK  116  A    between atoms: _283  and  _284
REMARK  117  A    between atoms: _283  and  _286
REMARK  118  A    between atoms: _286  and  _287
REMARK  119  A    between atoms: _292  and  _294
REMARK  120  A    between atoms: _294  and  _295
REMARK  121  A    between atoms: _294  and  _297
REMARK  122  A    between atoms: _297  and  _298
REMARK  123  A    between atoms: _298  and  _299
REMARK  124  A    between atoms: _299  and  _300
REMARK  125  A    between atoms: _309  and  _311
REMARK  126  A    between atoms: _311  and  _312
REMARK  127  A    between atoms: _311  and  _314
REMARK  128  A    between atoms: _314  and  _315
REMARK  129  A    between atoms: _318  and  _320
REMARK  130  A    between atoms: _320  and  _321
REMARK  131  A    between atoms: _320  and  _323
REMARK  132  A    between atoms: _323  and  _324
REMARK  133  A    between atoms: _327  and  _329
REMARK  134  A    between atoms: _329  and  _330
REMARK  135  A    between atoms: _329  and  _332
REMARK  136  A    between atoms: _332  and  _333
REMARK  137  A    between atoms: _336  and  _338
REMARK  138  A    between atoms: _338  and  _339
REMARK  139  A    between atoms: _338  and  _341
REMARK  140  A    between atoms: _341  and  _342
REMARK  141  A    between atoms: _345  and  _347
REMARK  142  A    between atoms: _347  and  _348
REMARK  143  A    between atoms: _350  and  _352
REMARK  144  A    between atoms: _352  and  _353
REMARK  145  A    between atoms: _356  and  _358
REMARK  146  A    between atoms: _358  and  _359
REMARK  147  A    between atoms: _358  and  _361
REMARK  148  A    between atoms: _361  and  _362
REMARK  149  A    between atoms: _365  and  _367
REMARK  150  A    between atoms: _367  and  _368
REMARK  151  A    between atoms: _367  and  _370
REMARK  152  A    between atoms: _370  and  _371
REMARK  153  A    between atoms: _374  and  _376
REMARK  154  A    between atoms: _376  and  _377
REMARK  155  A    between atoms: _376  and  _379
REMARK  156  A    between atoms: _379  and  _380
REMARK  157  A    between atoms: _383  and  _385
REMARK  158  A    between atoms: _385  and  _386
REMARK  159  A    between atoms: _385  and  _388
REMARK  160  A    between atoms: _388  and  _389
REMARK  161  A    between atoms: _392  and  _394
REMARK  162  A    between atoms: _394  and  _395
REMARK  163  A    between atoms: _394  and  _397
REMARK  164  A    between atoms: _397  and  _398
REMARK  165  A    between atoms: _398  and  _399
REMARK  166  A    between atoms: _401  and  _403
REMARK  167  A    between atoms: _403  and  _404
REMARK  168  A    between atoms: _403  and  _406
REMARK  169  A    between atoms: _409  and  _411
REMARK  170  A    between atoms: _411  and  _412
REMARK  171  A    between atoms: _414  and  _416
REMARK  172  A    between atoms: _416  and  _417
REMARK  173  A    between atoms: _419  and  _421
REMARK  174  A    between atoms: _421  and  _422
REMARK  175  A    between atoms: _421  and  _424
REMARK  176  A    between atoms: _424  and  _425
REMARK  177  A    between atoms: _428  and  _430
REMARK  178  A    between atoms: _430  and  _431
REMARK  179  A    between atoms: _433  and  _435
REMARK  180  A    between atoms: _435  and  _436
REMARK  181  A    between atoms: _438  and  _440
REMARK  182  A    between atoms: _440  and  _441
REMARK  183  A    between atoms: _440  and  _443
REMARK  184  A    between atoms: _443  and  _444
REMARK  185  A    between atoms: _447  and  _449
REMARK  186  A    between atoms: _449  and  _450
REMARK  187  A    between atoms: _449  and  _452
REMARK  188  A    between atoms: _455  and  _457
REMARK  189  A    between atoms: _457  and  _458
REMARK  190  A    between atoms: _457  and  _460
REMARK  191  A    between atoms: _460  and  _461
REMARK  192  A    between atoms: _465  and  _466
REMARK  193  A    between atoms: _471  and  _473
REMARK  194  A    between atoms: _473  and  _474
REMARK  195  A    between atoms: _473  and  _476
REMARK  196  A    between atoms: _476  and  _477
REMARK  197  A    between atoms: _481  and  _482
REMARK  198  A    between atoms: _487  and  _489
REMARK  199  A    between atoms: _489  and  _490
REMARK  200  A    between atoms: _489  and  _492
REMARK  201  A    between atoms: _492  and  _493
REMARK  202  A    between atoms: _496  and  _498
REMARK  203  A    between atoms: _498  and  _499
REMARK  204  A    between atoms: _498  and  _501
REMARK  205  A    between atoms: _501  and  _502
REMARK  206  A    between atoms: _507  and  _509
REMARK  207  A    between atoms: _509  and  _510
REMARK  208  A    between atoms: _509  and  _512
REMARK  209  A    between atoms: _512  and  _513
REMARK  210  A    between atoms: _516  and  _518
REMARK  211  A    between atoms: _518  and  _519
REMARK  212  A    between atoms: _518  and  _521
REMARK  213  A    between atoms: _521  and  _522
REMARK  214  A    between atoms: _525  and  _527
REMARK  215  A    between atoms: _527  and  _528
REMARK  216  A    between atoms: _530  and  _532
REMARK  217  A    between atoms: _532  and  _533
REMARK  218  A    between atoms: _532  and  _535
REMARK  219  A    between atoms: _535  and  _536
REMARK  220  A    between atoms: _536  and  _537
REMARK  221  A    between atoms: _537  and  _538
REMARK  222  A    between atoms: _547  and  _549
REMARK  223  A    between atoms: _549  and  _550
REMARK  224  A    between atoms: _549  and  _552
REMARK  225  A    between atoms: _552  and  _553
REMARK                            x       y       z     vdW  Elec       q    Type
REMARK                         _______ _______ _______ _____ _____    ______ ____
ROOT
ATOM      1  O   HOH     1      -5.266  15.795  37.569  0.00  0.00    +0.000 OA
ENDROOT
TORSDOF 0
REMARK  Name = ../refined-set-2016/3s56/3s56_pocket.pdb
REMARK  225 active torsions:
REMARK  status: ('A' for Active; 'I' for Inactive)
REMARK    1  A    between atoms: _1  and  _3
REMARK    2  A    between atoms: _3  and  _4
REMARK    3  A    between atoms: _3  and  _6
REMARK    4  A    between atoms: _6  and  _7
REMARK    5  A    between atoms: _7  and  _8
REMARK    6  A    between atoms: _8  and  _9
REMARK    7  A    between atoms: _18  and  _20
REMARK    8  A    between atoms: _20  and  _21
REMARK    9  A    between atoms: _20  and  _23
REMARK   10  A    between atoms: _23  and  _24
REMARK   11  A    between atoms: _27  and  _29
REMARK   12  A    between atoms: _29  and  _30
REMARK   13  A    between atoms: _29  and  _32
REMARK   14  A    between atoms: _32  and  _33
REMARK   15  A    between atoms: _36  and  _38
REMARK   16  A    between atoms: _38  and  _39
REMARK   17  A    between atoms: _38  and  _41
REMARK   18  A    between atoms: _41  and  _42
REMARK   19  A    between atoms: _45  and  _47
REMARK   20  A    between atoms: _47  and  _48
REMARK   21  A    between atoms: _47  and  _50
REMARK   22  A    between atoms: _50  and  _51
REMARK   23  A    between atoms: _54  and  _56
REMARK   24  A    between atoms: _56  and  _57
REMARK   25  A    between atoms: _59  and  _61
REMARK   26  A    between atoms: _61  and  _62
REMARK   27  A    between atoms: _65  and  _67
REMARK   28  A    between atoms: _67  and  _68
REMARK   29  A    between atoms: _67  and  _70
REMARK   30  A    between atoms: _70  and  _71
REMARK   31  A    between atoms: _74  and  _76
REMARK   32  A    between atoms: _76  and  _77
REMARK   33  A    between atoms: _76  and  _79
REMARK   34  A    between atoms: _79  and  _80
REMARK   35  A    between atoms: _83  and  _85
REMARK   36  A    between atoms: _85  and  _86
REMARK   37  A    between atoms: _85  and  _88
REMARK   38  A    between atoms: _88  and  _89
REMARK   39  A    between atoms: _92  and  _94
REMARK   40  A    between atoms: _94  and  _95
REMARK   41  A    between atoms: _94  and  _97
REMARK   42  A    between atoms: _97  and  _98
REMARK   43  A    between atoms: _101  and  _103
REMARK   44  A    between atoms: _103  and  _104
REMARK   45  A    between atoms: _103  and  _106
REMARK   46  A    between atoms: _106  and  _107
REMARK   47  A    between atoms: _107  and  _108
REMARK   48  A    between atoms: _108  and  _109
REMARK   49  A    between atoms: _109  and  _110
REMARK   50  A    between atoms: _114  and  _116
REMARK   51  A    between atoms: _116  and  _117
REMARK   52  A    between atoms: _116  and  _119
REMARK   53  A    between atoms: _119  and  _120
REMARK   54  A    between atoms: _120  and  _121
REMARK   55  A    between atoms: _123  and  _125
REMARK   56  A    between atoms: _125  and  _126
REMARK   57  A    between atoms: _125  and  _128
REMARK   58  A    between atoms: _131  and  _133
REMARK   59  A    between atoms: _133  and  _134
REMARK   60  A    between atoms: _136  and  _138
REMARK   61  A    between atoms: _138  and  _139
REMARK   62  A    between atoms: _141  and  _143
REMARK   63  A    between atoms: _143  and  _144
REMARK   64  A    between atoms: _143  and  _146
REMARK   65  A    between atoms: _146  and  _147
REMARK   66  A    between atoms: _150  and  _152
REMARK   67  A    between atoms: _152  and  _153
REMARK   68  A    between atoms: _155  and  _157
REMARK   69  A    between atoms: _157  and  _158
REMARK   70  A    between atoms: _160  and  _162
REMARK   71  A    between atoms: _162  and  _163
REMARK   72  A    between atoms: _162  and  _165
REMARK   73  A    between atoms: _165  and  _166
REMARK   74  A    between atoms: _172  and  _174
REMARK   75  A    between atoms: _174  and  _175
REMARK   76  A    between atoms: _174  and  _177
REMARK   77  A    between atoms: _177  and  _178
REMARK   78  A    between atoms: _181  and  _183
REMARK   79  A    between atoms: _183  and  _184
REMARK   80  A    between atoms: _183  and  _186
REMARK   81  A    between atoms: _189  and  _191
REMARK   82  A    between atoms: _191  and  _192
REMARK   83  A    between atoms: _191  and  _194
REMARK   84  A    between atoms: _194  and  _195
REMARK   85  A    between atoms: _199  and  _200
REMARK   86  A    between atoms: _205  and  _207
REMARK   87  A    between atoms: _207  and  _208
REMARK   88  A    between atoms: _207  and  _210
REMARK   89  A    between atoms: _210  and  _211
REMARK   90  A    between atoms: _215  and  _216
REMARK   91  A    between atoms: _221  and  _223
REMARK   92  A    between atoms: _223  and  _224
REMARK   93  A    between atoms: _223  and  _226
REMARK   94  A    between atoms: _226  and  _227
REMARK   95  A    between atoms: _230  and  _232
REMARK   96  A    between atoms: _232  and  _233
REMARK   97  A    between atoms: _232  and  _235
REMARK   98  A    between atoms: _235  and  _236
REMARK   99  A    between atoms: _241  and  _243
REMARK  100  A    between atoms: _243  and  _244
REMARK  101  A    between atoms: _243  and  _246
REMARK  102  A    between atoms: _246  and  _247
REMARK  103  A    between atoms: _250  and  _252
REMARK  104  A    between atoms: _252  and  _253
REMARK  105  A    between atoms: _252  and  _255
REMARK  106  A    between atoms: _255  and  _256
REMARK  107  A    between atoms: _259  and  _261
REMARK  108  A    between atoms: _261  and  _262
REMARK  109  A    between atoms: _264  and  _266
REMARK  110  A    between atoms: _266  and  _267
REMARK  111  A    between atoms: _266  and  _269
REMARK  112  A    between atoms: _269  and  _270
REMARK  113  A    between atoms: _270  and  _271
REMARK  114  A    between atoms: _271  and  _272
REMARK  115  A    between atoms: _281  and  _283
REMARK  116  A    between atoms: _283  and  _284
REMARK  117  A    between atoms: _283  and  _286
REMARK  118  A    between atoms: _286  and  _287
REMARK  119  A    between atoms: _292  and  _294
REMARK  120  A    between atoms: _294  and  _295
REMARK  121  A    between atoms: _294  and  _297
REMARK  122  A    between atoms: _297  and  _298
REMARK  123  A    between atoms: _298  and  _299
REMARK  124  A    between atoms: _299  and  _300
REMARK  125  A    between atoms: _309  and  _311
REMARK  126  A    between atoms: _311  and  _312
REMARK  127  A    between atoms: _311  and  _314
REMARK  128  A    between atoms: _314  and  _315
REMARK  129  A    between atoms: _318  and  _320
REMARK  130  A    between atoms: _320  and  _321
REMARK  131  A    between atoms: _320  and  _323
REMARK  132  A    between atoms: _323  and  _324
REMARK  133  A    between atoms: _327  and  _329
REMARK  134  A    between atoms: _329  and  _330
REMARK  135  A    between atoms: _329  and  _332
REMARK  136  A    between atoms: _332  and  _333
REMARK  137  A    between atoms: _336  and  _338
REMARK  138  A    between atoms: _338  and  _339
REMARK  139  A    between atoms: _338  and  _341
REMARK  140  A    between atoms: _341  and  _342
REMARK  141  A    between atoms: _345  and  _347
REMARK  142  A    between atoms: _347  and  _348
REMARK  143  A    between atoms: _350  and  _352
REMARK  144  A    between atoms: _352  and  _353
REMARK  145  A    between atoms: _356  and  _358
REMARK  146  A    between atoms: _358  and  _359
REMARK  147  A    between atoms: _358  and  _361
REMARK  148  A    between atoms: _361  and  _362
REMARK  149  A    between atoms: _365  and  _367
REMARK  150  A    between atoms: _367  and  _368
REMARK  151  A    between atoms: _367  and  _370
REMARK  152  A    between atoms: _370  and  _371
REMARK  153  A    between atoms: _374  and  _376
REMARK  154  A    between atoms: _376  and  _377
REMARK  155  A    between atoms: _376  and  _379
REMARK  156  A    between atoms: _379  and  _380
REMARK  157  A    between atoms: _383  and  _385
REMARK  158  A    between atoms: _385  and  _386
REMARK  159  A    between atoms: _385  and  _388
REMARK  160  A    between atoms: _388  and  _389
REMARK  161  A    between atoms: _392  and  _394
REMARK  162  A    between atoms: _394  and  _395
REMARK  163  A    between atoms: _394  and  _397
REMARK  164  A    between atoms: _397  and  _398
REMARK  165  A    between atoms: _398  and  _399
REMARK  166  A    between atoms: _401  and  _403
REMARK  167  A    between atoms: _403  and  _404
REMARK  168  A    between atoms: _403  and  _406
REMARK  169  A    between atoms: _409  and  _411
REMARK  170  A    between atoms: _411  and  _412
REMARK  171  A    between atoms: _414  and  _416
REMARK  172  A    between atoms: _416  and  _417
REMARK  173  A    between atoms: _419  and  _421
REMARK  174  A    between atoms: _421  and  _422
REMARK  175  A    between atoms: _421  and  _424
REMARK  176  A    between atoms: _424  and  _425
REMARK  177  A    between atoms: _428  and  _430
REMARK  178  A    between atoms: _430  and  _431
REMARK  179  A    between atoms: _433  and  _435
REMARK  180  A    between atoms: _435  and  _436
REMARK  181  A    between atoms: _438  and  _440
REMARK  182  A    between atoms: _440  and  _441
REMARK  183  A    between atoms: _440  and  _443
REMARK  184  A    between atoms: _443  and  _444
REMARK  185  A    between atoms: _447  and  _449
REMARK  186  A    between atoms: _449  and  _450
REMARK  187  A    between atoms: _449  and  _452
REMARK  188  A    between atoms: _455  and  _457
REMARK  189  A    between atoms: _457  and  _458
REMARK  190  A    between atoms: _457  and  _460
REMARK  191  A    between atoms: _460  and  _461
REMARK  192  A    between atoms: _465  and  _466
REMARK  193  A    between atoms: _471  and  _473
REMARK  194  A    between atoms: _473  and  _474
REMARK  195  A    between atoms: _473  and  _476
REMARK  196  A    between atoms: _476  and  _477
REMARK  197  A    between atoms: _481  and  _482
REMARK  198  A    between atoms: _487  and  _489
REMARK  199  A    between atoms: _489  and  _490
REMARK  200  A    between atoms: _489  and  _492
REMARK  201  A    between atoms: _492  and  _493
REMARK  202  A    between atoms: _496  and  _498
REMARK  203  A    between atoms: _498  and  _499
REMARK  204  A    between atoms: _498  and  _501
REMARK  205  A    between atoms: _501  and  _502
REMARK  206  A    between atoms: _507  and  _509
REMARK  207  A    between atoms: _509  and  _510
REMARK  208  A    between atoms: _509  and  _512
REMARK  209  A    between atoms: _512  and  _513
REMARK  210  A    between atoms: _516  and  _518
REMARK  211  A    between atoms: _518  and  _519
REMARK  212  A    between atoms: _518  and  _521
REMARK  213  A    between atoms: _521  and  _522
REMARK  214  A    between atoms: _525  and  _527
REMARK  215  A    between atoms: _527  and  _528
REMARK  216  A    between atoms: _530  and  _532
REMARK  217  A    between atoms: _532  and  _533
REMARK  218  A    between atoms: _532  and  _535
REMARK  219  A    between atoms: _535  and  _536
REMARK  220  A    between atoms: _536  and  _537
REMARK  221  A    between atoms: _537  and  _538
REMARK  222  A    between atoms: _547  and  _549
REMARK  223  A    between atoms: _549  and  _550
REMARK  224  A    between atoms: _549  and  _552
REMARK  225  A    between atoms: _552  and  _553
REMARK                            x       y       z     vdW  Elec       q    Type
REMARK                         _______ _______ _______ _____ _____    ______ ____
ROOT
ATOM      1  O   HOH     1      -4.804   1.455  34.152  0.00  0.00    +0.000 OA
ENDROOT
TORSDOF 0
REMARK  Name = ../refined-set-2016/3s56/3s56_pocket.pdb
REMARK  225 active torsions:
REMARK  status: ('A' for Active; 'I' for Inactive)
REMARK    1  A    between atoms: _1  and  _3
REMARK    2  A    between atoms: _3  and  _4
REMARK    3  A    between atoms: _3  and  _6
REMARK    4  A    between atoms: _6  and  _7
REMARK    5  A    between atoms: _7  and  _8
REMARK    6  A    between atoms: _8  and  _9
REMARK    7  A    between atoms: _18  and  _20
REMARK    8  A    between atoms: _20  and  _21
REMARK    9  A    between atoms: _20  and  _23
REMARK   10  A    between atoms: _23  and  _24
REMARK   11  A    between atoms: _27  and  _29
REMARK   12  A    between atoms: _29  and  _30
REMARK   13  A    between atoms: _29  and  _32
REMARK   14  A    between atoms: _32  and  _33
REMARK   15  A    between atoms: _36  and  _38
REMARK   16  A    between atoms: _38  and  _39
REMARK   17  A    between atoms: _38  and  _41
REMARK   18  A    between atoms: _41  and  _42
REMARK   19  A    between atoms: _45  and  _47
REMARK   20  A    between atoms: _47  and  _48
REMARK   21  A    between atoms: _47  and  _50
REMARK   22  A    between atoms: _50  and  _51
REMARK   23  A    between atoms: _54  and  _56
REMARK   24  A    between atoms: _56  and  _57
REMARK   25  A    between atoms: _59  and  _61
REMARK   26  A    between atoms: _61  and  _62
REMARK   27  A    between atoms: _65  and  _67
REMARK   28  A    between atoms: _67  and  _68
REMARK   29  A    between atoms: _67  and  _70
REMARK   30  A    between atoms: _70  and  _71
REMARK   31  A    between atoms: _74  and  _76
REMARK   32  A    between atoms: _76  and  _77
REMARK   33  A    between atoms: _76  and  _79
REMARK   34  A    between atoms: _79  and  _80
REMARK   35  A    between atoms: _83  and  _85
REMARK   36  A    between atoms: _85  and  _86
REMARK   37  A    between atoms: _85  and  _88
REMARK   38  A    between atoms: _88  and  _89
REMARK   39  A    between atoms: _92  and  _94
REMARK   40  A    between atoms: _94  and  _95
REMARK   41  A    between atoms: _94  and  _97
REMARK   42  A    between atoms: _97  and  _98
REMARK   43  A    between atoms: _101  and  _103
REMARK   44  A    between atoms: _103  and  _104
REMARK   45  A    between atoms: _103  and  _106
REMARK   46  A    between atoms: _106  and  _107
REMARK   47  A    between atoms: _107  and  _108
REMARK   48  A    between atoms: _108  and  _109
REMARK   49  A    between atoms: _109  and  _110
REMARK   50  A    between atoms: _114  and  _116
REMARK   51  A    between atoms: _116  and  _117
REMARK   52  A    between atoms: _116  and  _119
REMARK   53  A    between atoms: _119  and  _120
REMARK   54  A    between atoms: _120  and  _121
REMARK   55  A    between atoms: _123  and  _125
REMARK   56  A    between atoms: _125  and  _126
REMARK   57  A    between atoms: _125  and  _128
REMARK   58  A    between atoms: _131  and  _133
REMARK   59  A    between atoms: _133  and  _134
REMARK   60  A    between atoms: _136  and  _138
REMARK   61  A    between atoms: _138  and  _139
REMARK   62  A    between atoms: _141  and  _143
REMARK   63  A    between atoms: _143  and  _144
REMARK   64  A    between atoms: _143  and  _146
REMARK   65  A    between atoms: _146  and  _147
REMARK   66  A    between atoms: _150  and  _152
REMARK   67  A    between atoms: _152  and  _153
REMARK   68  A    between atoms: _155  and  _157
REMARK   69  A    between atoms: _157  and  _158
REMARK   70  A    between atoms: _160  and  _162
REMARK   71  A    between atoms: _162  and  _163
REMARK   72  A    between atoms: _162  and  _165
REMARK   73  A    between atoms: _165  and  _166
REMARK   74  A    between atoms: _172  and  _174
REMARK   75  A    between atoms: _174  and  _175
REMARK   76  A    between atoms: _174  and  _177
REMARK   77  A    between atoms: _177  and  _178
REMARK   78  A    between atoms: _181  and  _183
REMARK   79  A    between atoms: _183  and  _184
REMARK   80  A    between atoms: _183  and  _186
REMARK   81  A    between atoms: _189  and  _191
REMARK   82  A    between atoms: _191  and  _192
REMARK   83  A    between atoms: _191  and  _194
REMARK   84  A    between atoms: _194  and  _195
REMARK   85  A    between atoms: _199  and  _200
REMARK   86  A    between atoms: _205  and  _207
REMARK   87  A    between atoms: _207  and  _208
REMARK   88  A    between atoms: _207  and  _210
REMARK   89  A    between atoms: _210  and  _211
REMARK   90  A    between atoms: _215  and  _216
REMARK   91  A    between atoms: _221  and  _223
REMARK   92  A    between atoms: _223  and  _224
REMARK   93  A    between atoms: _223  and  _226
REMARK   94  A    between atoms: _226  and  _227
REMARK   95  A    between atoms: _230  and  _232
REMARK   96  A    between atoms: _232  and  _233
REMARK   97  A    between atoms: _232  and  _235
REMARK   98  A    between atoms: _235  and  _236
REMARK   99  A    between atoms: _241  and  _243
REMARK  100  A    between atoms: _243  and  _244
REMARK  101  A    between atoms: _243  and  _246
REMARK  102  A    between atoms: _246  and  _247
REMARK  103  A    between atoms: _250  and  _252
REMARK  104  A    between atoms: _252  and  _253
REMARK  105  A    between atoms: _252  and  _255
REMARK  106  A    between atoms: _255  and  _256
REMARK  107  A    between atoms: _259  and  _261
REMARK  108  A    between atoms: _261  and  _262
REMARK  109  A    between atoms: _264  and  _266
REMARK  110  A    between atoms: _266  and  _267
REMARK  111  A    between atoms: _266  and  _269
REMARK  112  A    between atoms: _269  and  _270
REMARK  113  A    between atoms: _270  and  _271
REMARK  114  A    between atoms: _271  and  _272
REMARK  115  A    between atoms: _281  and  _283
REMARK  116  A    between atoms: _283  and  _284
REMARK  117  A    between atoms: _283  and  _286
REMARK  118  A    between atoms: _286  and  _287
REMARK  119  A    between atoms: _292  and  _294
REMARK  120  A    between atoms: _294  and  _295
REMARK  121  A    between atoms: _294  and  _297
REMARK  122  A    between atoms: _297  and  _298
REMARK  123  A    between atoms: _298  and  _299
REMARK  124  A    between atoms: _299  and  _300
REMARK  125  A    between atoms: _309  and  _311
REMARK  126  A    between atoms: _311  and  _312
REMARK  127  A    between atoms: _311  and  _314
REMARK  128  A    between atoms: _314  and  _315
REMARK  129  A    between atoms: _318  and  _320
REMARK  130  A    between atoms: _320  and  _321
REMARK  131  A    between atoms: _320  and  _323
REMARK  132  A    between atoms: _323  and  _324
REMARK  133  A    between atoms: _327  and  _329
REMARK  134  A    between atoms: _329  and  _330
REMARK  135  A    between atoms: _329  and  _332
REMARK  136  A    between atoms: _332  and  _333
REMARK  137  A    between atoms: _336  and  _338
REMARK  138  A    between atoms: _338  and  _339
REMARK  139  A    between atoms: _338  and  _341
REMARK  140  A    between atoms: _341  and  _342
REMARK  141  A    between atoms: _345  and  _347
REMARK  142  A    between atoms: _347  and  _348
REMARK  143  A    between atoms: _350  and  _352
REMARK  144  A    between atoms: _352  and  _353
REMARK  145  A    between atoms: _356  and  _358
REMARK  146  A    between atoms: _358  and  _359
REMARK  147  A    between atoms: _358  and  _361
REMARK  148  A    between atoms: _361  and  _362
REMARK  149  A    between atoms: _365  and  _367
REMARK  150  A    between atoms: _367  and  _368
REMARK  151  A    between atoms: _367  and  _370
REMARK  152  A    between atoms: _370  and  _371
REMARK  153  A    between atoms: _374  and  _376
REMARK  154  A    between atoms: _376  and  _377
REMARK  155  A    between atoms: _376  and  _379
REMARK  156  A    between atoms: _379  and  _380
REMARK  157  A    between atoms: _383  and  _385
REMARK  158  A    between atoms: _385  and  _386
REMARK  159  A    between atoms: _385  and  _388
REMARK  160  A    between atoms: _388  and  _389
REMARK  161  A    between atoms: _392  and  _394
REMARK  162  A    between atoms: _394  and  _395
REMARK  163  A    between atoms: _394  and  _397
REMARK  164  A    between atoms: _397  and  _398
REMARK  165  A    between atoms: _398  and  _399
REMARK  166  A    between atoms: _401  and  _403
REMARK  167  A    between atoms: _403  and  _404
REMARK  168  A    between atoms: _403  and  _406
REMARK  169  A    between atoms: _409  and  _411
REMARK  170  A    between atoms: _411  and  _412
REMARK  171  A    between atoms: _414  and  _416
REMARK  172  A    between atoms: _416  and  _417
REMARK  173  A    between atoms: _419  and  _421
REMARK  174  A    between atoms: _421  and  _422
REMARK  175  A    between atoms: _421  and  _424
REMARK  176  A    between atoms: _424  and  _425
REMARK  177  A    between atoms: _428  and  _430
REMARK  178  A    between atoms: _430  and  _431
REMARK  179  A    between atoms: _433  and  _435
REMARK  180  A    between atoms: _435  and  _436
REMARK  181  A    between atoms: _438  and  _440
REMARK  182  A    between atoms: _440  and  _441
REMARK  183  A    between atoms: _440  and  _443
REMARK  184  A    between atoms: _443  and  _444
REMARK  185  A    between atoms: _447  and  _449
REMARK  186  A    between atoms: _449  and  _450
REMARK  187  A    between atoms: _449  and  _452
REMARK  188  A    between atoms: _455  and  _457
REMARK  189  A    between atoms: _457  and  _458
REMARK  190  A    between atoms: _457  and  _460
REMARK  191  A    between atoms: _460  and  _461
REMARK  192  A    between atoms: _465  and  _466
REMARK  193  A    between atoms: _471  and  _473
REMARK  194  A    between atoms: _473  and  _474
REMARK  195  A    between atoms: _473  and  _476
REMARK  196  A    between atoms: _476  and  _477
REMARK  197  A    between atoms: _481  and  _482
REMARK  198  A    between atoms: _487  and  _489
REMARK  199  A    between atoms: _489  and  _490
REMARK  200  A    between atoms: _489  and  _492
REMARK  201  A    between atoms: _492  and  _493
REMARK  202  A    between atoms: _496  and  _498
REMARK  203  A    between atoms: _498  and  _499
REMARK  204  A    between atoms: _498  and  _501
REMARK  205  A    between atoms: _501  and  _502
REMARK  206  A    between atoms: _507  and  _509
REMARK  207  A    between atoms: _509  and  _510
REMARK  208  A    between atoms: _509  and  _512
REMARK  209  A    between atoms: _512  and  _513
REMARK  210  A    between atoms: _516  and  _518
REMARK  211  A    between atoms: _518  and  _519
REMARK  212  A    between atoms: _518  and  _521
REMARK  213  A    between atoms: _521  and  _522
REMARK  214  A    between atoms: _525  and  _527
REMARK  215  A    between atoms: _527  and  _528
REMARK  216  A    between atoms: _530  and  _532
REMARK  217  A    between atoms: _532  and  _533
REMARK  218  A    between atoms: _532  and  _535
REMARK  219  A    between atoms: _535  and  _536
REMARK  220  A    between atoms: _536  and  _537
REMARK  221  A    between atoms: _537  and  _538
REMARK  222  A    between atoms: _547  and  _549
REMARK  223  A    between atoms: _549  and  _550
REMARK  224  A    between atoms: _549  and  _552
REMARK  225  A    between atoms: _552  and  _553
REMARK                            x       y       z     vdW  Elec       q    Type
REMARK                         _______ _______ _______ _____ _____    ______ ____
ROOT
ATOM      1  O   HOH     1      -0.639   6.251  24.452  0.00  0.00    +0.000 OA
ENDROOT
TORSDOF 0
