REMARK  Name = ../refined-set-2016/4yo8/4yo8_pocket.pdb
REMARK  219 active torsions:
REMARK  status: ('A' for Active; 'I' for Inactive)
REMARK    1  A    between atoms: _1  and  _3
REMARK    2  A    between atoms: _3  and  _4
REMARK    3  A    between atoms: _6  and  _8
REMARK    4  A    between atoms: _8  and  _9
REMARK    5  A    between atoms: _12  and  _14
REMARK    6  A    between atoms: _14  and  _15
REMARK    7  A    between atoms: _14  and  _17
REMARK    8  A    between atoms: _17  and  _18
REMARK    9  A    between atoms: _18  and  _19
REMARK   10  A    between atoms: _21  and  _23
REMARK   11  A    between atoms: _23  and  _24
REMARK   12  A    between atoms: _23  and  _26
REMARK   13  A    between atoms: _26  and  _27
REMARK   14  A    between atoms: _27  and  _28
REMARK   15  A    between atoms: _31  and  _33
REMARK   16  A    between atoms: _33  and  _34
REMARK   17  A    between atoms: _33  and  _36
REMARK   18  A    between atoms: _36  and  _37
REMARK   19  A    between atoms: _39  and  _41
REMARK   20  A    between atoms: _41  and  _42
REMARK   21  A    between atoms: _41  and  _44
REMARK   22  A    between atoms: _44  and  _45
REMARK   23  A    between atoms: _45  and  _46
REMARK   24  A    between atoms: _46  and  _47
REMARK   25  A    between atoms: _47  and  _48
REMARK   26  A    between atoms: _52  and  _54
REMARK   27  A    between atoms: _54  and  _55
REMARK   28  A    between atoms: _54  and  _57
REMARK   29  A    between atoms: _57  and  _58
REMARK   30  A    between atoms: _61  and  _63
REMARK   31  A    between atoms: _63  and  _64
REMARK   32  A    between atoms: _66  and  _68
REMARK   33  A    between atoms: _68  and  _69
REMARK   34  A    between atoms: _68  and  _71
REMARK   35  A    between atoms: _71  and  _72
REMARK   36  A    between atoms: _72  and  _73
REMARK   37  A    between atoms: _73  and  _74
REMARK   38  A    between atoms: _74  and  _75
REMARK   39  A    between atoms: _79  and  _81
REMARK   40  A    between atoms: _81  and  _82
REMARK   41  A    between atoms: _81  and  _84
REMARK   42  A    between atoms: _84  and  _85
REMARK   43  A    between atoms: _91  and  _93
REMARK   44  A    between atoms: _93  and  _94
REMARK   45  A    between atoms: _96  and  _98
REMARK   46  A    between atoms: _98  and  _99
REMARK   47  A    between atoms: _98  and  _101
REMARK   48  A    between atoms: _104  and  _106
REMARK   49  A    between atoms: _106  and  _107
REMARK   50  A    between atoms: _110  and  _112
REMARK   51  A    between atoms: _112  and  _113
REMARK   52  A    between atoms: _115  and  _117
REMARK   53  A    between atoms: _117  and  _118
REMARK   54  A    between atoms: _117  and  _120
REMARK   55  A    between atoms: _120  and  _121
REMARK   56  A    between atoms: _123  and  _125
REMARK   57  A    between atoms: _125  and  _126
REMARK   58  A    between atoms: _125  and  _128
REMARK   59  A    between atoms: _128  and  _129
REMARK   60  A    between atoms: _132  and  _134
REMARK   61  A    between atoms: _134  and  _135
REMARK   62  A    between atoms: _134  and  _137
REMARK   63  A    between atoms: _137  and  _138
REMARK   64  A    between atoms: _143  and  _145
REMARK   65  A    between atoms: _145  and  _146
REMARK   66  A    between atoms: _149  and  _151
REMARK   67  A    between atoms: _151  and  _152
REMARK   68  A    between atoms: _151  and  _154
REMARK   69  A    between atoms: _154  and  _155
REMARK   70  A    between atoms: _157  and  _159
REMARK   71  A    between atoms: _159  and  _160
REMARK   72  A    between atoms: _162  and  _164
REMARK   73  A    between atoms: _164  and  _165
REMARK   74  A    between atoms: _164  and  _167
REMARK   75  A    between atoms: _167  and  _168
REMARK   76  A    between atoms: _171  and  _173
REMARK   77  A    between atoms: _173  and  _174
REMARK   78  A    between atoms: _173  and  _176
REMARK   79  A    between atoms: _176  and  _177
REMARK   80  A    between atoms: _177  and  _178
REMARK   81  A    between atoms: _183  and  _185
REMARK   82  A    between atoms: _185  and  _186
REMARK   83  A    between atoms: _185  and  _188
REMARK   84  A    between atoms: _188  and  _189
REMARK   85  A    between atoms: _195  and  _197
REMARK   86  A    between atoms: _197  and  _198
REMARK   87  A    between atoms: _197  and  _200
REMARK   88  A    between atoms: _203  and  _205
REMARK   89  A    between atoms: _205  and  _206
REMARK   90  A    between atoms: _205  and  _208
REMARK   91  A    between atoms: _208  and  _209
REMARK   92  A    between atoms: _214  and  _216
REMARK   93  A    between atoms: _216  and  _217
REMARK   94  A    between atoms: _216  and  _219
REMARK   95  A    between atoms: _219  and  _220
REMARK   96  A    between atoms: _222  and  _224
REMARK   97  A    between atoms: _224  and  _225
REMARK   98  A    between atoms: _224  and  _227
REMARK   99  A    between atoms: _227  and  _228
REMARK  100  A    between atoms: _228  and  _229
REMARK  101  A    between atoms: _229  and  _230
REMARK  102  A    between atoms: _230  and  _231
REMARK  103  A    between atoms: _235  and  _237
REMARK  104  A    between atoms: _237  and  _238
REMARK  105  A    between atoms: _237  and  _240
REMARK  106  A    between atoms: _240  and  _241
REMARK  107  A    between atoms: _244  and  _246
REMARK  108  A    between atoms: _246  and  _247
REMARK  109  A    between atoms: _250  and  _252
REMARK  110  A    between atoms: _252  and  _253
REMARK  111  A    between atoms: _252  and  _255
REMARK  112  A    between atoms: _258  and  _260
REMARK  113  A    between atoms: _260  and  _261
REMARK  114  A    between atoms: _260  and  _263
REMARK  115  A    between atoms: _263  and  _264
REMARK  116  A    between atoms: _264  and  _265
REMARK  117  A    between atoms: _268  and  _270
REMARK  118  A    between atoms: _270  and  _271
REMARK  119  A    between atoms: _270  and  _273
REMARK  120  A    between atoms: _273  and  _274
REMARK  121  A    between atoms: _274  and  _275
REMARK  122  A    between atoms: _277  and  _279
REMARK  123  A    between atoms: _279  and  _280
REMARK  124  A    between atoms: _279  and  _282
REMARK  125  A    between atoms: _282  and  _283
REMARK  126  A    between atoms: _283  and  _284
REMARK  127  A    between atoms: _287  and  _289
REMARK  128  A    between atoms: _289  and  _290
REMARK  129  A    between atoms: _292  and  _294
REMARK  130  A    between atoms: _294  and  _295
REMARK  131  A    between atoms: _294  and  _297
REMARK  132  A    between atoms: _297  and  _298
REMARK  133  A    between atoms: _298  and  _299
REMARK  134  A    between atoms: _299  and  _300
REMARK  135  A    between atoms: _309  and  _311
REMARK  136  A    between atoms: _311  and  _312
REMARK  137  A    between atoms: _311  and  _314
REMARK  138  A    between atoms: _314  and  _315
REMARK  139  A    between atoms: _317  and  _319
REMARK  140  A    between atoms: _319  and  _320
REMARK  141  A    between atoms: _319  and  _322
REMARK  142  A    between atoms: _322  and  _323
REMARK  143  A    between atoms: _326  and  _328
REMARK  144  A    between atoms: _328  and  _329
REMARK  145  A    between atoms: _328  and  _331
REMARK  146  A    between atoms: _331  and  _332
REMARK  147  A    between atoms: _334  and  _336
REMARK  148  A    between atoms: _336  and  _337
REMARK  149  A    between atoms: _336  and  _339
REMARK  150  A    between atoms: _339  and  _340
REMARK  151  A    between atoms: _343  and  _345
REMARK  152  A    between atoms: _345  and  _346
REMARK  153  A    between atoms: _345  and  _348
REMARK  154  A    between atoms: _348  and  _349
REMARK  155  A    between atoms: _354  and  _356
REMARK  156  A    between atoms: _356  and  _357
REMARK  157  A    between atoms: _360  and  _362
REMARK  158  A    between atoms: _362  and  _363
REMARK  159  A    between atoms: _362  and  _365
REMARK  160  A    between atoms: _365  and  _366
REMARK  161  A    between atoms: _369  and  _371
REMARK  162  A    between atoms: _371  and  _372
REMARK  163  A    between atoms: _375  and  _377
REMARK  164  A    between atoms: _377  and  _378
REMARK  165  A    between atoms: _380  and  _382
REMARK  166  A    between atoms: _382  and  _383
REMARK  167  A    between atoms: _382  and  _385
REMARK  168  A    between atoms: _385  and  _386
REMARK  169  A    between atoms: _388  and  _390
REMARK  170  A    between atoms: _390  and  _391
REMARK  171  A    between atoms: _390  and  _393
REMARK  172  A    between atoms: _393  and  _394
REMARK  173  A    between atoms: _400  and  _402
REMARK  174  A    between atoms: _402  and  _403
REMARK  175  A    between atoms: _402  and  _405
REMARK  176  A    between atoms: _405  and  _406
REMARK  177  A    between atoms: _409  and  _411
REMARK  178  A    between atoms: _411  and  _412
REMARK  179  A    between atoms: _411  and  _414
REMARK  180  A    between atoms: _414  and  _415
REMARK  181  A    between atoms: _418  and  _420
REMARK  182  A    between atoms: _420  and  _421
REMARK  183  A    between atoms: _420  and  _423
REMARK  184  A    between atoms: _423  and  _424
REMARK  185  A    between atoms: _426  and  _428
REMARK  186  A    between atoms: _428  and  _429
REMARK  187  A    between atoms: _428  and  _431
REMARK  188  A    between atoms: _431  and  _432
REMARK  189  A    between atoms: _435  and  _437
REMARK  190  A    between atoms: _437  and  _438
REMARK  191  A    between atoms: _437  and  _440
REMARK  192  A    between atoms: _440  and  _441
REMARK  193  A    between atoms: _444  and  _446
REMARK  194  A    between atoms: _446  and  _447
REMARK  195  A    between atoms: _446  and  _449
REMARK  196  A    between atoms: _449  and  _450
REMARK  197  A    between atoms: _452  and  _454
REMARK  198  A    between atoms: _454  and  _455
REMARK  199  A    between atoms: _458  and  _460
REMARK  200  A    between atoms: _460  and  _461
REMARK  201  A    between atoms: _460  and  _463
REMARK  202  A    between atoms: _463  and  _464
REMARK  203  A    between atoms: _470  and  _472
REMARK  204  A    between atoms: _472  and  _473
REMARK  205  A    between atoms: _472  and  _475
REMARK  206  A    between atoms: _475  and  _476
REMARK  207  A    between atoms: _479  and  _481
REMARK  208  A    between atoms: _481  and  _482
REMARK  209  A    between atoms: _481  and  _484
REMARK  210  A    between atoms: _484  and  _485
REMARK  211  A    between atoms: _490  and  _492
REMARK  212  A    between atoms: _492  and  _493
REMARK  213  A    between atoms: _492  and  _495
REMARK  214  A    between atoms: _495  and  _496
REMARK  215  A    between atoms: _502  and  _504
REMARK  216  A    between atoms: _504  and  _505
REMARK  217  A    between atoms: _504  and  _507
REMARK  218  A    between atoms: _507  and  _508
REMARK  219  A    between atoms: _512  and  _513
REMARK                            x       y       z     vdW  Elec       q    Type
REMARK                         _______ _______ _______ _____ _____    ______ ____
ROOT
ATOM      1  C   ALA A   2      -8.120  12.149 -20.654  0.00  0.00    +0.241 C 
ATOM      2  O   ALA A   2      -7.919  12.216 -19.463  0.00  0.00    -0.273 OA
ATOM      3  N   MET A   3      -9.300  12.397 -21.186  0.00  0.00    -0.298 N 
ATOM      4  H   MET A   3      -9.422  12.270 -22.211  0.00  0.00    +0.150 HD
ENDROOT
BRANCH   1   5
ATOM      5  CA  ALA A   2      -7.002  11.760 -21.616  0.00  0.00    +0.149 C 
ATOM      6  CB  ALA A   2      -6.377  13.000 -22.219  0.00  0.00    +0.031 C 
BRANCH   5   9
ATOM      7  C   GLY A   1      -7.515   9.581 -22.524  0.00  0.00    +0.240 C 
ATOM      8  O   GLY A   1      -7.018   9.019 -21.561  0.00  0.00    -0.274 OA
ATOM      9  N   ALA A   2      -7.506  10.896 -22.665  0.00  0.00    -0.297 N 
ATOM     10  H   ALA A   2      -7.867  11.318 -23.544  0.00  0.00    +0.150 HD
BRANCH   7  11
ATOM     11  CA  GLY A   1      -8.159   8.780 -23.633  0.00  0.00    +0.169 C 
BRANCH  11  12
ATOM     12  N   GLY A   1      -7.842   7.388 -23.397  0.00  0.00    -0.236 NA
ATOM     13  H   GLY A   1      -8.135   6.960 -22.496  0.00  0.00    +0.142 HD
ENDBRANCH  11  12
ENDBRANCH   7  11
ENDBRANCH   5   9
ENDBRANCH   1   5
BRANCH   3  14
ATOM     14  CA  MET A   3     -10.444  12.843 -20.392  0.00  0.00    +0.138 C 
BRANCH  14  15
ATOM     15  C   MET A   3     -11.535  11.788 -20.446  0.00  0.00    +0.227 C 
ATOM     16  O   MET A   3     -11.613  11.009 -21.420  0.00  0.00    -0.286 OA
ENDBRANCH  14  15
BRANCH  14  17
ATOM     17  CB  MET A   3     -10.968  14.171 -20.953  0.00  0.00    +0.039 C 
BRANCH  17  18
ATOM     18  CG  MET A   3      -9.930  15.279 -20.989  0.00  0.00    +0.060 C 
BRANCH  18  19
ATOM     19  SD  MET A   3     -10.500  16.722 -21.912  0.00  0.00    -0.139 S 
ATOM     20  CE  MET A   3     -11.601  17.372 -20.681  0.00  0.00    +0.069 C 
ENDBRANCH  18  19
ENDBRANCH  17  18
ENDBRANCH  14  17
ENDBRANCH   3  14
TORSDOF 9
REMARK  Name = ../refined-set-2016/4yo8/4yo8_pocket.pdb
REMARK  219 active torsions:
REMARK  status: ('A' for Active; 'I' for Inactive)
REMARK    1  A    between atoms: _1  and  _3
REMARK    2  A    between atoms: _3  and  _4
REMARK    3  A    between atoms: _6  and  _8
REMARK    4  A    between atoms: _8  and  _9
REMARK    5  A    between atoms: _12  and  _14
REMARK    6  A    between atoms: _14  and  _15
REMARK    7  A    between atoms: _14  and  _17
REMARK    8  A    between atoms: _17  and  _18
REMARK    9  A    between atoms: _18  and  _19
REMARK   10  A    between atoms: _21  and  _23
REMARK   11  A    between atoms: _23  and  _24
REMARK   12  A    between atoms: _23  and  _26
REMARK   13  A    between atoms: _26  and  _27
REMARK   14  A    between atoms: _27  and  _28
REMARK   15  A    between atoms: _31  and  _33
REMARK   16  A    between atoms: _33  and  _34
REMARK   17  A    between atoms: _33  and  _36
REMARK   18  A    between atoms: _36  and  _37
REMARK   19  A    between atoms: _39  and  _41
REMARK   20  A    between atoms: _41  and  _42
REMARK   21  A    between atoms: _41  and  _44
REMARK   22  A    between atoms: _44  and  _45
REMARK   23  A    between atoms: _45  and  _46
REMARK   24  A    between atoms: _46  and  _47
REMARK   25  A    between atoms: _47  and  _48
REMARK   26  A    between atoms: _52  and  _54
REMARK   27  A    between atoms: _54  and  _55
REMARK   28  A    between atoms: _54  and  _57
REMARK   29  A    between atoms: _57  and  _58
REMARK   30  A    between atoms: _61  and  _63
REMARK   31  A    between atoms: _63  and  _64
REMARK   32  A    between atoms: _66  and  _68
REMARK   33  A    between atoms: _68  and  _69
REMARK   34  A    between atoms: _68  and  _71
REMARK   35  A    between atoms: _71  and  _72
REMARK   36  A    between atoms: _72  and  _73
REMARK   37  A    between atoms: _73  and  _74
REMARK   38  A    between atoms: _74  and  _75
REMARK   39  A    between atoms: _79  and  _81
REMARK   40  A    between atoms: _81  and  _82
REMARK   41  A    between atoms: _81  and  _84
REMARK   42  A    between atoms: _84  and  _85
REMARK   43  A    between atoms: _91  and  _93
REMARK   44  A    between atoms: _93  and  _94
REMARK   45  A    between atoms: _96  and  _98
REMARK   46  A    between atoms: _98  and  _99
REMARK   47  A    between atoms: _98  and  _101
REMARK   48  A    between atoms: _104  and  _106
REMARK   49  A    between atoms: _106  and  _107
REMARK   50  A    between atoms: _110  and  _112
REMARK   51  A    between atoms: _112  and  _113
REMARK   52  A    between atoms: _115  and  _117
REMARK   53  A    between atoms: _117  and  _118
REMARK   54  A    between atoms: _117  and  _120
REMARK   55  A    between atoms: _120  and  _121
REMARK   56  A    between atoms: _123  and  _125
REMARK   57  A    between atoms: _125  and  _126
REMARK   58  A    between atoms: _125  and  _128
REMARK   59  A    between atoms: _128  and  _129
REMARK   60  A    between atoms: _132  and  _134
REMARK   61  A    between atoms: _134  and  _135
REMARK   62  A    between atoms: _134  and  _137
REMARK   63  A    between atoms: _137  and  _138
REMARK   64  A    between atoms: _143  and  _145
REMARK   65  A    between atoms: _145  and  _146
REMARK   66  A    between atoms: _149  and  _151
REMARK   67  A    between atoms: _151  and  _152
REMARK   68  A    between atoms: _151  and  _154
REMARK   69  A    between atoms: _154  and  _155
REMARK   70  A    between atoms: _157  and  _159
REMARK   71  A    between atoms: _159  and  _160
REMARK   72  A    between atoms: _162  and  _164
REMARK   73  A    between atoms: _164  and  _165
REMARK   74  A    between atoms: _164  and  _167
REMARK   75  A    between atoms: _167  and  _168
REMARK   76  A    between atoms: _171  and  _173
REMARK   77  A    between atoms: _173  and  _174
REMARK   78  A    between atoms: _173  and  _176
REMARK   79  A    between atoms: _176  and  _177
REMARK   80  A    between atoms: _177  and  _178
REMARK   81  A    between atoms: _183  and  _185
REMARK   82  A    between atoms: _185  and  _186
REMARK   83  A    between atoms: _185  and  _188
REMARK   84  A    between atoms: _188  and  _189
REMARK   85  A    between atoms: _195  and  _197
REMARK   86  A    between atoms: _197  and  _198
REMARK   87  A    between atoms: _197  and  _200
REMARK   88  A    between atoms: _203  and  _205
REMARK   89  A    between atoms: _205  and  _206
REMARK   90  A    between atoms: _205  and  _208
REMARK   91  A    between atoms: _208  and  _209
REMARK   92  A    between atoms: _214  and  _216
REMARK   93  A    between atoms: _216  and  _217
REMARK   94  A    between atoms: _216  and  _219
REMARK   95  A    between atoms: _219  and  _220
REMARK   96  A    between atoms: _222  and  _224
REMARK   97  A    between atoms: _224  and  _225
REMARK   98  A    between atoms: _224  and  _227
REMARK   99  A    between atoms: _227  and  _228
REMARK  100  A    between atoms: _228  and  _229
REMARK  101  A    between atoms: _229  and  _230
REMARK  102  A    between atoms: _230  and  _231
REMARK  103  A    between atoms: _235  and  _237
REMARK  104  A    between atoms: _237  and  _238
REMARK  105  A    between atoms: _237  and  _240
REMARK  106  A    between atoms: _240  and  _241
REMARK  107  A    between atoms: _244  and  _246
REMARK  108  A    between atoms: _246  and  _247
REMARK  109  A    between atoms: _250  and  _252
REMARK  110  A    between atoms: _252  and  _253
REMARK  111  A    between atoms: _252  and  _255
REMARK  112  A    between atoms: _258  and  _260
REMARK  113  A    between atoms: _260  and  _261
REMARK  114  A    between atoms: _260  and  _263
REMARK  115  A    between atoms: _263  and  _264
REMARK  116  A    between atoms: _264  and  _265
REMARK  117  A    between atoms: _268  and  _270
REMARK  118  A    between atoms: _270  and  _271
REMARK  119  A    between atoms: _270  and  _273
REMARK  120  A    between atoms: _273  and  _274
REMARK  121  A    between atoms: _274  and  _275
REMARK  122  A    between atoms: _277  and  _279
REMARK  123  A    between atoms: _279  and  _280
REMARK  124  A    between atoms: _279  and  _282
REMARK  125  A    between atoms: _282  and  _283
REMARK  126  A    between atoms: _283  and  _284
REMARK  127  A    between atoms: _287  and  _289
REMARK  128  A    between atoms: _289  and  _290
REMARK  129  A    between atoms: _292  and  _294
REMARK  130  A    between atoms: _294  and  _295
REMARK  131  A    between atoms: _294  and  _297
REMARK  132  A    between atoms: _297  and  _298
REMARK  133  A    between atoms: _298  and  _299
REMARK  134  A    between atoms: _299  and  _300
REMARK  135  A    between atoms: _309  and  _311
REMARK  136  A    between atoms: _311  and  _312
REMARK  137  A    between atoms: _311  and  _314
REMARK  138  A    between atoms: _314  and  _315
REMARK  139  A    between atoms: _317  and  _319
REMARK  140  A    between atoms: _319  and  _320
REMARK  141  A    between atoms: _319  and  _322
REMARK  142  A    between atoms: _322  and  _323
REMARK  143  A    between atoms: _326  and  _328
REMARK  144  A    between atoms: _328  and  _329
REMARK  145  A    between atoms: _328  and  _331
REMARK  146  A    between atoms: _331  and  _332
REMARK  147  A    between atoms: _334  and  _336
REMARK  148  A    between atoms: _336  and  _337
REMARK  149  A    between atoms: _336  and  _339
REMARK  150  A    between atoms: _339  and  _340
REMARK  151  A    between atoms: _343  and  _345
REMARK  152  A    between atoms: _345  and  _346
REMARK  153  A    between atoms: _345  and  _348
REMARK  154  A    between atoms: _348  and  _349
REMARK  155  A    between atoms: _354  and  _356
REMARK  156  A    between atoms: _356  and  _357
REMARK  157  A    between atoms: _360  and  _362
REMARK  158  A    between atoms: _362  and  _363
REMARK  159  A    between atoms: _362  and  _365
REMARK  160  A    between atoms: _365  and  _366
REMARK  161  A    between atoms: _369  and  _371
REMARK  162  A    between atoms: _371  and  _372
REMARK  163  A    between atoms: _375  and  _377
REMARK  164  A    between atoms: _377  and  _378
REMARK  165  A    between atoms: _380  and  _382
REMARK  166  A    between atoms: _382  and  _383
REMARK  167  A    between atoms: _382  and  _385
REMARK  168  A    between atoms: _385  and  _386
REMARK  169  A    between atoms: _388  and  _390
REMARK  170  A    between atoms: _390  and  _391
REMARK  171  A    between atoms: _390  and  _393
REMARK  172  A    between atoms: _393  and  _394
REMARK  173  A    between atoms: _400  and  _402
REMARK  174  A    between atoms: _402  and  _403
REMARK  175  A    between atoms: _402  and  _405
REMARK  176  A    between atoms: _405  and  _406
REMARK  177  A    between atoms: _409  and  _411
REMARK  178  A    between atoms: _411  and  _412
REMARK  179  A    between atoms: _411  and  _414
REMARK  180  A    between atoms: _414  and  _415
REMARK  181  A    between atoms: _418  and  _420
REMARK  182  A    between atoms: _420  and  _421
REMARK  183  A    between atoms: _420  and  _423
REMARK  184  A    between atoms: _423  and  _424
REMARK  185  A    between atoms: _426  and  _428
REMARK  186  A    between atoms: _428  and  _429
REMARK  187  A    between atoms: _428  and  _431
REMARK  188  A    between atoms: _431  and  _432
REMARK  189  A    between atoms: _435  and  _437
REMARK  190  A    between atoms: _437  and  _438
REMARK  191  A    between atoms: _437  and  _440
REMARK  192  A    between atoms: _440  and  _441
REMARK  193  A    between atoms: _444  and  _446
REMARK  194  A    between atoms: _446  and  _447
REMARK  195  A    between atoms: _446  and  _449
REMARK  196  A    between atoms: _449  and  _450
REMARK  197  A    between atoms: _452  and  _454
REMARK  198  A    between atoms: _454  and  _455
REMARK  199  A    between atoms: _458  and  _460
REMARK  200  A    between atoms: _460  and  _461
REMARK  201  A    between atoms: _460  and  _463
REMARK  202  A    between atoms: _463  and  _464
REMARK  203  A    between atoms: _470  and  _472
REMARK  204  A    between atoms: _472  and  _473
REMARK  205  A    between atoms: _472  and  _475
REMARK  206  A    between atoms: _475  and  _476
REMARK  207  A    between atoms: _479  and  _481
REMARK  208  A    between atoms: _481  and  _482
REMARK  209  A    between atoms: _481  and  _484
REMARK  210  A    between atoms: _484  and  _485
REMARK  211  A    between atoms: _490  and  _492
REMARK  212  A    between atoms: _492  and  _493
REMARK  213  A    between atoms: _492  and  _495
REMARK  214  A    between atoms: _495  and  _496
REMARK  215  A    between atoms: _502  and  _504
REMARK  216  A    between atoms: _504  and  _505
REMARK  217  A    between atoms: _504  and  _507
REMARK  218  A    between atoms: _507  and  _508
REMARK  219  A    between atoms: _512  and  _513
REMARK                            x       y       z     vdW  Elec       q    Type
REMARK                         _______ _______ _______ _____ _____    ______ ____
ROOT
ATOM      1  CA  GLU A   1     -12.899  10.765 -24.673  0.00  0.00    +0.134 C 
ENDROOT
BRANCH   1   2
ATOM      2  N   GLU A   1     -13.560  11.446 -23.550  0.00  0.00    -0.239 NA
ATOM      3  H   GLU A   1     -12.996  11.695 -22.713  0.00  0.00    +0.142 HD
ENDBRANCH   1   2
BRANCH   1   4
ATOM      4  C   GLU A   1     -13.079   9.246 -24.633  0.00  0.00    +0.224 C 
ATOM      5  O   GLU A   1     -12.973   8.586 -25.683  0.00  0.00    -0.287 OA
ENDBRANCH   1   4
BRANCH   1   6
ATOM      6  CB  GLU A   1     -11.412  11.183 -24.767  0.00  0.00    +0.037 C 
BRANCH   6   7
ATOM      7  CG  GLU A   1     -11.263  12.652 -25.180  0.00  0.00    +0.116 C 
BRANCH   7   8
ATOM      8  CD  GLU A   1      -9.852  13.197 -25.040  0.00  0.00    +0.365 C 
ATOM      9  OE2 GLU A   1      -9.135  12.791 -24.109  0.00  0.00    -0.246 OA
ATOM     10  OE1 GLU A   1      -9.455  14.024 -25.882  0.00  0.00    -0.246 OA
ENDBRANCH   7   8
ENDBRANCH   6   7
ENDBRANCH   1   6
TORSDOF 5
REMARK  Name = ../refined-set-2016/4yo8/4yo8_pocket.pdb
REMARK  219 active torsions:
REMARK  status: ('A' for Active; 'I' for Inactive)
REMARK    1  A    between atoms: _1  and  _3
REMARK    2  A    between atoms: _3  and  _4
REMARK    3  A    between atoms: _6  and  _8
REMARK    4  A    between atoms: _8  and  _9
REMARK    5  A    between atoms: _12  and  _14
REMARK    6  A    between atoms: _14  and  _15
REMARK    7  A    between atoms: _14  and  _17
REMARK    8  A    between atoms: _17  and  _18
REMARK    9  A    between atoms: _18  and  _19
REMARK   10  A    between atoms: _21  and  _23
REMARK   11  A    between atoms: _23  and  _24
REMARK   12  A    between atoms: _23  and  _26
REMARK   13  A    between atoms: _26  and  _27
REMARK   14  A    between atoms: _27  and  _28
REMARK   15  A    between atoms: _31  and  _33
REMARK   16  A    between atoms: _33  and  _34
REMARK   17  A    between atoms: _33  and  _36
REMARK   18  A    between atoms: _36  and  _37
REMARK   19  A    between atoms: _39  and  _41
REMARK   20  A    between atoms: _41  and  _42
REMARK   21  A    between atoms: _41  and  _44
REMARK   22  A    between atoms: _44  and  _45
REMARK   23  A    between atoms: _45  and  _46
REMARK   24  A    between atoms: _46  and  _47
REMARK   25  A    between atoms: _47  and  _48
REMARK   26  A    between atoms: _52  and  _54
REMARK   27  A    between atoms: _54  and  _55
REMARK   28  A    between atoms: _54  and  _57
REMARK   29  A    between atoms: _57  and  _58
REMARK   30  A    between atoms: _61  and  _63
REMARK   31  A    between atoms: _63  and  _64
REMARK   32  A    between atoms: _66  and  _68
REMARK   33  A    between atoms: _68  and  _69
REMARK   34  A    between atoms: _68  and  _71
REMARK   35  A    between atoms: _71  and  _72
REMARK   36  A    between atoms: _72  and  _73
REMARK   37  A    between atoms: _73  and  _74
REMARK   38  A    between atoms: _74  and  _75
REMARK   39  A    between atoms: _79  and  _81
REMARK   40  A    between atoms: _81  and  _82
REMARK   41  A    between atoms: _81  and  _84
REMARK   42  A    between atoms: _84  and  _85
REMARK   43  A    between atoms: _91  and  _93
REMARK   44  A    between atoms: _93  and  _94
REMARK   45  A    between atoms: _96  and  _98
REMARK   46  A    between atoms: _98  and  _99
REMARK   47  A    between atoms: _98  and  _101
REMARK   48  A    between atoms: _104  and  _106
REMARK   49  A    between atoms: _106  and  _107
REMARK   50  A    between atoms: _110  and  _112
REMARK   51  A    between atoms: _112  and  _113
REMARK   52  A    between atoms: _115  and  _117
REMARK   53  A    between atoms: _117  and  _118
REMARK   54  A    between atoms: _117  and  _120
REMARK   55  A    between atoms: _120  and  _121
REMARK   56  A    between atoms: _123  and  _125
REMARK   57  A    between atoms: _125  and  _126
REMARK   58  A    between atoms: _125  and  _128
REMARK   59  A    between atoms: _128  and  _129
REMARK   60  A    between atoms: _132  and  _134
REMARK   61  A    between atoms: _134  and  _135
REMARK   62  A    between atoms: _134  and  _137
REMARK   63  A    between atoms: _137  and  _138
REMARK   64  A    between atoms: _143  and  _145
REMARK   65  A    between atoms: _145  and  _146
REMARK   66  A    between atoms: _149  and  _151
REMARK   67  A    between atoms: _151  and  _152
REMARK   68  A    between atoms: _151  and  _154
REMARK   69  A    between atoms: _154  and  _155
REMARK   70  A    between atoms: _157  and  _159
REMARK   71  A    between atoms: _159  and  _160
REMARK   72  A    between atoms: _162  and  _164
REMARK   73  A    between atoms: _164  and  _165
REMARK   74  A    between atoms: _164  and  _167
REMARK   75  A    between atoms: _167  and  _168
REMARK   76  A    between atoms: _171  and  _173
REMARK   77  A    between atoms: _173  and  _174
REMARK   78  A    between atoms: _173  and  _176
REMARK   79  A    between atoms: _176  and  _177
REMARK   80  A    between atoms: _177  and  _178
REMARK   81  A    between atoms: _183  and  _185
REMARK   82  A    between atoms: _185  and  _186
REMARK   83  A    between atoms: _185  and  _188
REMARK   84  A    between atoms: _188  and  _189
REMARK   85  A    between atoms: _195  and  _197
REMARK   86  A    between atoms: _197  and  _198
REMARK   87  A    between atoms: _197  and  _200
REMARK   88  A    between atoms: _203  and  _205
REMARK   89  A    between atoms: _205  and  _206
REMARK   90  A    between atoms: _205  and  _208
REMARK   91  A    between atoms: _208  and  _209
REMARK   92  A    between atoms: _214  and  _216
REMARK   93  A    between atoms: _216  and  _217
REMARK   94  A    between atoms: _216  and  _219
REMARK   95  A    between atoms: _219  and  _220
REMARK   96  A    between atoms: _222  and  _224
REMARK   97  A    between atoms: _224  and  _225
REMARK   98  A    between atoms: _224  and  _227
REMARK   99  A    between atoms: _227  and  _228
REMARK  100  A    between atoms: _228  and  _229
REMARK  101  A    between atoms: _229  and  _230
REMARK  102  A    between atoms: _230  and  _231
REMARK  103  A    between atoms: _235  and  _237
REMARK  104  A    between atoms: _237  and  _238
REMARK  105  A    between atoms: _237  and  _240
REMARK  106  A    between atoms: _240  and  _241
REMARK  107  A    between atoms: _244  and  _246
REMARK  108  A    between atoms: _246  and  _247
REMARK  109  A    between atoms: _250  and  _252
REMARK  110  A    between atoms: _252  and  _253
REMARK  111  A    between atoms: _252  and  _255
REMARK  112  A    between atoms: _258  and  _260
REMARK  113  A    between atoms: _260  and  _261
REMARK  114  A    between atoms: _260  and  _263
REMARK  115  A    between atoms: _263  and  _264
REMARK  116  A    between atoms: _264  and  _265
REMARK  117  A    between atoms: _268  and  _270
REMARK  118  A    between atoms: _270  and  _271
REMARK  119  A    between atoms: _270  and  _273
REMARK  120  A    between atoms: _273  and  _274
REMARK  121  A    between atoms: _274  and  _275
REMARK  122  A    between atoms: _277  and  _279
REMARK  123  A    between atoms: _279  and  _280
REMARK  124  A    between atoms: _279  and  _282
REMARK  125  A    between atoms: _282  and  _283
REMARK  126  A    between atoms: _283  and  _284
REMARK  127  A    between atoms: _287  and  _289
REMARK  128  A    between atoms: _289  and  _290
REMARK  129  A    between atoms: _292  and  _294
REMARK  130  A    between atoms: _294  and  _295
REMARK  131  A    between atoms: _294  and  _297
REMARK  132  A    between atoms: _297  and  _298
REMARK  133  A    between atoms: _298  and  _299
REMARK  134  A    between atoms: _299  and  _300
REMARK  135  A    between atoms: _309  and  _311
REMARK  136  A    between atoms: _311  and  _312
REMARK  137  A    between atoms: _311  and  _314
REMARK  138  A    between atoms: _314  and  _315
REMARK  139  A    between atoms: _317  and  _319
REMARK  140  A    between atoms: _319  and  _320
REMARK  141  A    between atoms: _319  and  _322
REMARK  142  A    between atoms: _322  and  _323
REMARK  143  A    between atoms: _326  and  _328
REMARK  144  A    between atoms: _328  and  _329
REMARK  145  A    between atoms: _328  and  _331
REMARK  146  A    between atoms: _331  and  _332
REMARK  147  A    between atoms: _334  and  _336
REMARK  148  A    between atoms: _336  and  _337
REMARK  149  A    between atoms: _336  and  _339
REMARK  150  A    between atoms: _339  and  _340
REMARK  151  A    between atoms: _343  and  _345
REMARK  152  A    between atoms: _345  and  _346
REMARK  153  A    between atoms: _345  and  _348
REMARK  154  A    between atoms: _348  and  _349
REMARK  155  A    between atoms: _354  and  _356
REMARK  156  A    between atoms: _356  and  _357
REMARK  157  A    between atoms: _360  and  _362
REMARK  158  A    between atoms: _362  and  _363
REMARK  159  A    between atoms: _362  and  _365
REMARK  160  A    between atoms: _365  and  _366
REMARK  161  A    between atoms: _369  and  _371
REMARK  162  A    between atoms: _371  and  _372
REMARK  163  A    between atoms: _375  and  _377
REMARK  164  A    between atoms: _377  and  _378
REMARK  165  A    between atoms: _380  and  _382
REMARK  166  A    between atoms: _382  and  _383
REMARK  167  A    between atoms: _382  and  _385
REMARK  168  A    between atoms: _385  and  _386
REMARK  169  A    between atoms: _388  and  _390
REMARK  170  A    between atoms: _390  and  _391
REMARK  171  A    between atoms: _390  and  _393
REMARK  172  A    between atoms: _393  and  _394
REMARK  173  A    between atoms: _400  and  _402
REMARK  174  A    between atoms: _402  and  _403
REMARK  175  A    between atoms: _402  and  _405
REMARK  176  A    between atoms: _405  and  _406
REMARK  177  A    between atoms: _409  and  _411
REMARK  178  A    between atoms: _411  and  _412
REMARK  179  A    between atoms: _411  and  _414
REMARK  180  A    between atoms: _414  and  _415
REMARK  181  A    between atoms: _418  and  _420
REMARK  182  A    between atoms: _420  and  _421
REMARK  183  A    between atoms: _420  and  _423
REMARK  184  A    between atoms: _423  and  _424
REMARK  185  A    between atoms: _426  and  _428
REMARK  186  A    between atoms: _428  and  _429
REMARK  187  A    between atoms: _428  and  _431
REMARK  188  A    between atoms: _431  and  _432
REMARK  189  A    between atoms: _435  and  _437
REMARK  190  A    between atoms: _437  and  _438
REMARK  191  A    between atoms: _437  and  _440
REMARK  192  A    between atoms: _440  and  _441
REMARK  193  A    between atoms: _444  and  _446
REMARK  194  A    between atoms: _446  and  _447
REMARK  195  A    between atoms: _446  and  _449
REMARK  196  A    between atoms: _449  and  _450
REMARK  197  A    between atoms: _452  and  _454
REMARK  198  A    between atoms: _454  and  _455
REMARK  199  A    between atoms: _458  and  _460
REMARK  200  A    between atoms: _460  and  _461
REMARK  201  A    between atoms: _460  and  _463
REMARK  202  A    between atoms: _463  and  _464
REMARK  203  A    between atoms: _470  and  _472
REMARK  204  A    between atoms: _472  and  _473
REMARK  205  A    between atoms: _472  and  _475
REMARK  206  A    between atoms: _475  and  _476
REMARK  207  A    between atoms: _479  and  _481
REMARK  208  A    between atoms: _481  and  _482
REMARK  209  A    between atoms: _481  and  _484
REMARK  210  A    between atoms: _484  and  _485
REMARK  211  A    between atoms: _490  and  _492
REMARK  212  A    between atoms: _492  and  _493
REMARK  213  A    between atoms: _492  and  _495
REMARK  214  A    between atoms: _495  and  _496
REMARK  215  A    between atoms: _502  and  _504
REMARK  216  A    between atoms: _504  and  _505
REMARK  217  A    between atoms: _504  and  _507
REMARK  218  A    between atoms: _507  and  _508
REMARK  219  A    between atoms: _512  and  _513
REMARK                            x       y       z     vdW  Elec       q    Type
REMARK                         _______ _______ _______ _____ _____    ______ ____
ROOT
ATOM      1  CA  ILE A   3      -4.861  15.741 -18.448  0.00  0.00    +0.149 C 
ENDROOT
BRANCH   1   3
ATOM      2  C   LYS A   2      -5.434  13.537 -17.551  0.00  0.00    +0.241 C 
ATOM      3  N   ILE A   3      -5.528  14.861 -17.474  0.00  0.00    -0.297 N 
ATOM      4  H   ILE A   3      -6.087  15.286 -16.707  0.00  0.00    +0.150 HD
ATOM      5  O   LYS A   2      -4.603  12.994 -18.255  0.00  0.00    -0.273 OA
BRANCH   2   6
ATOM      6  CA  LYS A   2      -6.461  12.698 -16.754  0.00  0.00    +0.149 C 
BRANCH   6   9
ATOM      7  C   SER A   1      -5.597  10.385 -16.917  0.00  0.00    +0.241 C 
ATOM      8  O   SER A   1      -4.901  10.421 -15.923  0.00  0.00    -0.274 OA
ATOM      9  N   LYS A   2      -6.454  11.333 -17.276  0.00  0.00    -0.297 N 
ATOM     10  H   LYS A   2      -7.176  11.085 -17.983  0.00  0.00    +0.150 HD
BRANCH   7  11
ATOM     11  CA  SER A   1      -5.508   9.221 -17.845  0.00  0.00    +0.174 C 
BRANCH  11  12
ATOM     12  N   SER A   1      -6.721   9.015 -18.626  0.00  0.00    -0.236 NA
ATOM     13  H   SER A   1      -6.805   9.475 -19.555  0.00  0.00    +0.142 HD
ENDBRANCH  11  12
BRANCH  11  14
ATOM     14  CB  SER A   1      -4.313   9.449 -18.780  0.00  0.00    +0.163 C 
BRANCH  14  15
ATOM     15  OG  SER A   1      -4.481  10.584 -19.621  0.00  0.00    -0.380 OA
ATOM     16  H   SER A   1      -4.588  11.394 -19.062  0.00  0.00    +0.211 HD
ENDBRANCH  14  15
ENDBRANCH  11  14
ENDBRANCH   7  11
ENDBRANCH   6   9
BRANCH   6  17
ATOM     17  CB  LYS A   2      -6.305  12.752 -15.220  0.00  0.00    +0.029 C 
BRANCH  17  18
ATOM     18  CG  LYS A   2      -7.452  12.078 -14.466  0.00  0.00    +0.000 C 
BRANCH  18  19
ATOM     19  CD  LYS A   2      -7.174  11.880 -12.969  0.00  0.00    -0.024 C 
BRANCH  19  20
ATOM     20  CE  LYS A   2      -6.344  10.640 -12.699  0.00  0.00    -0.086 C 
BRANCH  20  21
ATOM     21  NZ  LYS A   2      -5.774  10.528 -11.315  0.00  0.00    +0.380 N 
ATOM     22  HZ1 LYS A   2      -6.549  10.518 -10.622  0.00  0.00    -0.089 HD
ATOM     23  HZ2 LYS A   2      -5.153  11.342 -11.130  0.00  0.00    -0.089 HD
ATOM     24  HZ3 LYS A   2      -5.226   9.647 -11.237  0.00  0.00    -0.089 HD
ENDBRANCH  20  21
ENDBRANCH  19  20
ENDBRANCH  18  19
ENDBRANCH  17  18
ENDBRANCH   6  17
ENDBRANCH   2   6
ENDBRANCH   1   3
BRANCH   1  25
ATOM     25  C   ILE A   3      -3.358  15.950 -18.221  0.00  0.00    +0.241 C 
ATOM     26  O   ILE A   3      -2.904  16.111 -17.088  0.00  0.00    -0.273 OA
ATOM     27  N   GLY A   4      -2.586  16.015 -19.306  0.00  0.00    -0.295 N 
ATOM     28  H   GLY A   4      -2.990  15.786 -20.237  0.00  0.00    +0.150 HD
BRANCH  27  29
ATOM     29  CA  GLY A   4      -1.161  16.409 -19.205  0.00  0.00    +0.176 C 
BRANCH  29  30
ATOM     30  C   GLY A   4      -0.168  15.255 -19.154  0.00  0.00    +0.243 C 
ATOM     31  O   GLY A   4      -0.570  14.089 -19.015  0.00  0.00    -0.273 OA
ATOM     32  N   LYS A   5       1.115  15.594 -19.251  0.00  0.00    -0.298 N 
ATOM     33  H   LYS A   5       1.358  16.605 -19.220  0.00  0.00    +0.150 HD
BRANCH  32  34
ATOM     34  CA  LYS A   5       2.212  14.621 -19.400  0.00  0.00    +0.137 C 
BRANCH  34  35
ATOM     35  C   LYS A   5       2.372  13.624 -18.262  0.00  0.00    +0.227 C 
ATOM     36  O   LYS A   5       2.687  12.456 -18.496  0.00  0.00    -0.286 OA
ENDBRANCH  34  35
BRANCH  34  37
ATOM     37  CB  LYS A   5       3.560  15.342 -19.430  0.00  0.00    +0.028 C 
BRANCH  37  38
ATOM     38  CG  LYS A   5       3.804  16.250 -20.600  0.00  0.00    -0.000 C 
BRANCH  38  39
ATOM     39  CD  LYS A   5       4.945  17.210 -20.233  0.00  0.00    -0.024 C 
BRANCH  39  40
ATOM     40  CE  LYS A   5       5.755  17.485 -21.468  0.00  0.00    -0.086 C 
BRANCH  40  41
ATOM     41  NZ  LYS A   5       6.817  18.424 -21.209  0.00  0.00    +0.380 N 
ATOM     42  HZ1 LYS A   5       7.450  18.037 -20.480  0.00  0.00    -0.089 HD
ATOM     43  HZ2 LYS A   5       6.411  19.322 -20.876  0.00  0.00    -0.089 HD
ATOM     44  HZ3 LYS A   5       7.354  18.589 -22.084  0.00  0.00    -0.089 HD
ENDBRANCH  40  41
ENDBRANCH  39  40
ENDBRANCH  38  39
ENDBRANCH  37  38
ENDBRANCH  34  37
ENDBRANCH  32  34
ENDBRANCH  29  30
ENDBRANCH  27  29
ENDBRANCH   1  25
BRANCH   1  45
ATOM     45  CB  ILE A   3      -5.556  17.109 -18.456  0.00  0.00    +0.027 C 
ATOM     46  CG2 ILE A   3      -4.712  18.178 -19.135  0.00  0.00    +0.002 C 
BRANCH  45  47
ATOM     47  CG1 ILE A   3      -6.905  16.997 -19.169  0.00  0.00    +0.002 C 
ATOM     48  CD1 ILE A   3      -7.856  18.126 -18.835  0.00  0.00    +0.000 C 
ENDBRANCH  45  47
ENDBRANCH   1  45
TORSDOF 24
REMARK  Name = ../refined-set-2016/4yo8/4yo8_pocket.pdb
REMARK  219 active torsions:
REMARK  status: ('A' for Active; 'I' for Inactive)
REMARK    1  A    between atoms: _1  and  _3
REMARK    2  A    between atoms: _3  and  _4
REMARK    3  A    between atoms: _6  and  _8
REMARK    4  A    between atoms: _8  and  _9
REMARK    5  A    between atoms: _12  and  _14
REMARK    6  A    between atoms: _14  and  _15
REMARK    7  A    between atoms: _14  and  _17
REMARK    8  A    between atoms: _17  and  _18
REMARK    9  A    between atoms: _18  and  _19
REMARK   10  A    between atoms: _21  and  _23
REMARK   11  A    between atoms: _23  and  _24
REMARK   12  A    between atoms: _23  and  _26
REMARK   13  A    between atoms: _26  and  _27
REMARK   14  A    between atoms: _27  and  _28
REMARK   15  A    between atoms: _31  and  _33
REMARK   16  A    between atoms: _33  and  _34
REMARK   17  A    between atoms: _33  and  _36
REMARK   18  A    between atoms: _36  and  _37
REMARK   19  A    between atoms: _39  and  _41
REMARK   20  A    between atoms: _41  and  _42
REMARK   21  A    between atoms: _41  and  _44
REMARK   22  A    between atoms: _44  and  _45
REMARK   23  A    between atoms: _45  and  _46
REMARK   24  A    between atoms: _46  and  _47
REMARK   25  A    between atoms: _47  and  _48
REMARK   26  A    between atoms: _52  and  _54
REMARK   27  A    between atoms: _54  and  _55
REMARK   28  A    between atoms: _54  and  _57
REMARK   29  A    between atoms: _57  and  _58
REMARK   30  A    between atoms: _61  and  _63
REMARK   31  A    between atoms: _63  and  _64
REMARK   32  A    between atoms: _66  and  _68
REMARK   33  A    between atoms: _68  and  _69
REMARK   34  A    between atoms: _68  and  _71
REMARK   35  A    between atoms: _71  and  _72
REMARK   36  A    between atoms: _72  and  _73
REMARK   37  A    between atoms: _73  and  _74
REMARK   38  A    between atoms: _74  and  _75
REMARK   39  A    between atoms: _79  and  _81
REMARK   40  A    between atoms: _81  and  _82
REMARK   41  A    between atoms: _81  and  _84
REMARK   42  A    between atoms: _84  and  _85
REMARK   43  A    between atoms: _91  and  _93
REMARK   44  A    between atoms: _93  and  _94
REMARK   45  A    between atoms: _96  and  _98
REMARK   46  A    between atoms: _98  and  _99
REMARK   47  A    between atoms: _98  and  _101
REMARK   48  A    between atoms: _104  and  _106
REMARK   49  A    between atoms: _106  and  _107
REMARK   50  A    between atoms: _110  and  _112
REMARK   51  A    between atoms: _112  and  _113
REMARK   52  A    between atoms: _115  and  _117
REMARK   53  A    between atoms: _117  and  _118
REMARK   54  A    between atoms: _117  and  _120
REMARK   55  A    between atoms: _120  and  _121
REMARK   56  A    between atoms: _123  and  _125
REMARK   57  A    between atoms: _125  and  _126
REMARK   58  A    between atoms: _125  and  _128
REMARK   59  A    between atoms: _128  and  _129
REMARK   60  A    between atoms: _132  and  _134
REMARK   61  A    between atoms: _134  and  _135
REMARK   62  A    between atoms: _134  and  _137
REMARK   63  A    between atoms: _137  and  _138
REMARK   64  A    between atoms: _143  and  _145
REMARK   65  A    between atoms: _145  and  _146
REMARK   66  A    between atoms: _149  and  _151
REMARK   67  A    between atoms: _151  and  _152
REMARK   68  A    between atoms: _151  and  _154
REMARK   69  A    between atoms: _154  and  _155
REMARK   70  A    between atoms: _157  and  _159
REMARK   71  A    between atoms: _159  and  _160
REMARK   72  A    between atoms: _162  and  _164
REMARK   73  A    between atoms: _164  and  _165
REMARK   74  A    between atoms: _164  and  _167
REMARK   75  A    between atoms: _167  and  _168
REMARK   76  A    between atoms: _171  and  _173
REMARK   77  A    between atoms: _173  and  _174
REMARK   78  A    between atoms: _173  and  _176
REMARK   79  A    between atoms: _176  and  _177
REMARK   80  A    between atoms: _177  and  _178
REMARK   81  A    between atoms: _183  and  _185
REMARK   82  A    between atoms: _185  and  _186
REMARK   83  A    between atoms: _185  and  _188
REMARK   84  A    between atoms: _188  and  _189
REMARK   85  A    between atoms: _195  and  _197
REMARK   86  A    between atoms: _197  and  _198
REMARK   87  A    between atoms: _197  and  _200
REMARK   88  A    between atoms: _203  and  _205
REMARK   89  A    between atoms: _205  and  _206
REMARK   90  A    between atoms: _205  and  _208
REMARK   91  A    between atoms: _208  and  _209
REMARK   92  A    between atoms: _214  and  _216
REMARK   93  A    between atoms: _216  and  _217
REMARK   94  A    between atoms: _216  and  _219
REMARK   95  A    between atoms: _219  and  _220
REMARK   96  A    between atoms: _222  and  _224
REMARK   97  A    between atoms: _224  and  _225
REMARK   98  A    between atoms: _224  and  _227
REMARK   99  A    between atoms: _227  and  _228
REMARK  100  A    between atoms: _228  and  _229
REMARK  101  A    between atoms: _229  and  _230
REMARK  102  A    between atoms: _230  and  _231
REMARK  103  A    between atoms: _235  and  _237
REMARK  104  A    between atoms: _237  and  _238
REMARK  105  A    between atoms: _237  and  _240
REMARK  106  A    between atoms: _240  and  _241
REMARK  107  A    between atoms: _244  and  _246
REMARK  108  A    between atoms: _246  and  _247
REMARK  109  A    between atoms: _250  and  _252
REMARK  110  A    between atoms: _252  and  _253
REMARK  111  A    between atoms: _252  and  _255
REMARK  112  A    between atoms: _258  and  _260
REMARK  113  A    between atoms: _260  and  _261
REMARK  114  A    between atoms: _260  and  _263
REMARK  115  A    between atoms: _263  and  _264
REMARK  116  A    between atoms: _264  and  _265
REMARK  117  A    between atoms: _268  and  _270
REMARK  118  A    between atoms: _270  and  _271
REMARK  119  A    between atoms: _270  and  _273
REMARK  120  A    between atoms: _273  and  _274
REMARK  121  A    between atoms: _274  and  _275
REMARK  122  A    between atoms: _277  and  _279
REMARK  123  A    between atoms: _279  and  _280
REMARK  124  A    between atoms: _279  and  _282
REMARK  125  A    between atoms: _282  and  _283
REMARK  126  A    between atoms: _283  and  _284
REMARK  127  A    between atoms: _287  and  _289
REMARK  128  A    between atoms: _289  and  _290
REMARK  129  A    between atoms: _292  and  _294
REMARK  130  A    between atoms: _294  and  _295
REMARK  131  A    between atoms: _294  and  _297
REMARK  132  A    between atoms: _297  and  _298
REMARK  133  A    between atoms: _298  and  _299
REMARK  134  A    between atoms: _299  and  _300
REMARK  135  A    between atoms: _309  and  _311
REMARK  136  A    between atoms: _311  and  _312
REMARK  137  A    between atoms: _311  and  _314
REMARK  138  A    between atoms: _314  and  _315
REMARK  139  A    between atoms: _317  and  _319
REMARK  140  A    between atoms: _319  and  _320
REMARK  141  A    between atoms: _319  and  _322
REMARK  142  A    between atoms: _322  and  _323
REMARK  143  A    between atoms: _326  and  _328
REMARK  144  A    between atoms: _328  and  _329
REMARK  145  A    between atoms: _328  and  _331
REMARK  146  A    between atoms: _331  and  _332
REMARK  147  A    between atoms: _334  and  _336
REMARK  148  A    between atoms: _336  and  _337
REMARK  149  A    between atoms: _336  and  _339
REMARK  150  A    between atoms: _339  and  _340
REMARK  151  A    between atoms: _343  and  _345
REMARK  152  A    between atoms: _345  and  _346
REMARK  153  A    between atoms: _345  and  _348
REMARK  154  A    between atoms: _348  and  _349
REMARK  155  A    between atoms: _354  and  _356
REMARK  156  A    between atoms: _356  and  _357
REMARK  157  A    between atoms: _360  and  _362
REMARK  158  A    between atoms: _362  and  _363
REMARK  159  A    between atoms: _362  and  _365
REMARK  160  A    between atoms: _365  and  _366
REMARK  161  A    between atoms: _369  and  _371
REMARK  162  A    between atoms: _371  and  _372
REMARK  163  A    between atoms: _375  and  _377
REMARK  164  A    between atoms: _377  and  _378
REMARK  165  A    between atoms: _380  and  _382
REMARK  166  A    between atoms: _382  and  _383
REMARK  167  A    between atoms: _382  and  _385
REMARK  168  A    between atoms: _385  and  _386
REMARK  169  A    between atoms: _388  and  _390
REMARK  170  A    between atoms: _390  and  _391
REMARK  171  A    between atoms: _390  and  _393
REMARK  172  A    between atoms: _393  and  _394
REMARK  173  A    between atoms: _400  and  _402
REMARK  174  A    between atoms: _402  and  _403
REMARK  175  A    between atoms: _402  and  _405
REMARK  176  A    between atoms: _405  and  _406
REMARK  177  A    between atoms: _409  and  _411
REMARK  178  A    between atoms: _411  and  _412
REMARK  179  A    between atoms: _411  and  _414
REMARK  180  A    between atoms: _414  and  _415
REMARK  181  A    between atoms: _418  and  _420
REMARK  182  A    between atoms: _420  and  _421
REMARK  183  A    between atoms: _420  and  _423
REMARK  184  A    between atoms: _423  and  _424
REMARK  185  A    between atoms: _426  and  _428
REMARK  186  A    between atoms: _428  and  _429
REMARK  187  A    between atoms: _428  and  _431
REMARK  188  A    between atoms: _431  and  _432
REMARK  189  A    between atoms: _435  and  _437
REMARK  190  A    between atoms: _437  and  _438
REMARK  191  A    between atoms: _437  and  _440
REMARK  192  A    between atoms: _440  and  _441
REMARK  193  A    between atoms: _444  and  _446
REMARK  194  A    between atoms: _446  and  _447
REMARK  195  A    between atoms: _446  and  _449
REMARK  196  A    between atoms: _449  and  _450
REMARK  197  A    between atoms: _452  and  _454
REMARK  198  A    between atoms: _454  and  _455
REMARK  199  A    between atoms: _458  and  _460
REMARK  200  A    between atoms: _460  and  _461
REMARK  201  A    between atoms: _460  and  _463
REMARK  202  A    between atoms: _463  and  _464
REMARK  203  A    between atoms: _470  and  _472
REMARK  204  A    between atoms: _472  and  _473
REMARK  205  A    between atoms: _472  and  _475
REMARK  206  A    between atoms: _475  and  _476
REMARK  207  A    between atoms: _479  and  _481
REMARK  208  A    between atoms: _481  and  _482
REMARK  209  A    between atoms: _481  and  _484
REMARK  210  A    between atoms: _484  and  _485
REMARK  211  A    between atoms: _490  and  _492
REMARK  212  A    between atoms: _492  and  _493
REMARK  213  A    between atoms: _492  and  _495
REMARK  214  A    between atoms: _495  and  _496
REMARK  215  A    between atoms: _502  and  _504
REMARK  216  A    between atoms: _504  and  _505
REMARK  217  A    between atoms: _504  and  _507
REMARK  218  A    between atoms: _507  and  _508
REMARK  219  A    between atoms: _512  and  _513
REMARK                            x       y       z     vdW  Elec       q    Type
REMARK                         _______ _______ _______ _____ _____    ______ ____
ROOT
ATOM      1  CB  PHE A   1      -3.789   7.388 -27.616  0.00  0.00    +0.051 C 
ENDROOT
BRANCH   1   2
ATOM      2  CG  PHE A   1      -4.208   8.549 -26.745  0.00  0.00    -0.020 A 
ATOM      3  CD2 PHE A   1      -3.765   8.654 -25.445  0.00  0.00    -0.004 A 
ATOM      4  CE2 PHE A   1      -4.142   9.723 -24.636  0.00  0.00    -0.000 A 
ATOM      5  CZ  PHE A   1      -4.983  10.701 -25.125  0.00  0.00    -0.000 A 
ATOM      6  CE1 PHE A   1      -5.436  10.619 -26.434  0.00  0.00    -0.000 A 
ATOM      7  CD1 PHE A   1      -5.050   9.547 -27.234  0.00  0.00    -0.004 A 
ENDBRANCH   1   2
BRANCH   1   8
ATOM      8  CA  PHE A   1      -4.925   6.430 -27.936  0.00  0.00    +0.137 C 
BRANCH   8   9
ATOM      9  N   PHE A   1      -4.453   5.262 -28.628  0.00  0.00    -0.239 NA
ATOM     10  H   PHE A   1      -3.794   5.370 -29.426  0.00  0.00    +0.142 HD
ENDBRANCH   8   9
BRANCH   8  11
ATOM     11  C   PHE A   1      -5.958   7.130 -28.812  0.00  0.00    +0.224 C 
ATOM     12  O   PHE A   1      -5.722   7.349 -29.991  0.00  0.00    -0.287 OA
ENDBRANCH   8  11
ENDBRANCH   1   8
TORSDOF 4
REMARK  Name = ../refined-set-2016/4yo8/4yo8_pocket.pdb
REMARK  219 active torsions:
REMARK  status: ('A' for Active; 'I' for Inactive)
REMARK    1  A    between atoms: _1  and  _3
REMARK    2  A    between atoms: _3  and  _4
REMARK    3  A    between atoms: _6  and  _8
REMARK    4  A    between atoms: _8  and  _9
REMARK    5  A    between atoms: _12  and  _14
REMARK    6  A    between atoms: _14  and  _15
REMARK    7  A    between atoms: _14  and  _17
REMARK    8  A    between atoms: _17  and  _18
REMARK    9  A    between atoms: _18  and  _19
REMARK   10  A    between atoms: _21  and  _23
REMARK   11  A    between atoms: _23  and  _24
REMARK   12  A    between atoms: _23  and  _26
REMARK   13  A    between atoms: _26  and  _27
REMARK   14  A    between atoms: _27  and  _28
REMARK   15  A    between atoms: _31  and  _33
REMARK   16  A    between atoms: _33  and  _34
REMARK   17  A    between atoms: _33  and  _36
REMARK   18  A    between atoms: _36  and  _37
REMARK   19  A    between atoms: _39  and  _41
REMARK   20  A    between atoms: _41  and  _42
REMARK   21  A    between atoms: _41  and  _44
REMARK   22  A    between atoms: _44  and  _45
REMARK   23  A    between atoms: _45  and  _46
REMARK   24  A    between atoms: _46  and  _47
REMARK   25  A    between atoms: _47  and  _48
REMARK   26  A    between atoms: _52  and  _54
REMARK   27  A    between atoms: _54  and  _55
REMARK   28  A    between atoms: _54  and  _57
REMARK   29  A    between atoms: _57  and  _58
REMARK   30  A    between atoms: _61  and  _63
REMARK   31  A    between atoms: _63  and  _64
REMARK   32  A    between atoms: _66  and  _68
REMARK   33  A    between atoms: _68  and  _69
REMARK   34  A    between atoms: _68  and  _71
REMARK   35  A    between atoms: _71  and  _72
REMARK   36  A    between atoms: _72  and  _73
REMARK   37  A    between atoms: _73  and  _74
REMARK   38  A    between atoms: _74  and  _75
REMARK   39  A    between atoms: _79  and  _81
REMARK   40  A    between atoms: _81  and  _82
REMARK   41  A    between atoms: _81  and  _84
REMARK   42  A    between atoms: _84  and  _85
REMARK   43  A    between atoms: _91  and  _93
REMARK   44  A    between atoms: _93  and  _94
REMARK   45  A    between atoms: _96  and  _98
REMARK   46  A    between atoms: _98  and  _99
REMARK   47  A    between atoms: _98  and  _101
REMARK   48  A    between atoms: _104  and  _106
REMARK   49  A    between atoms: _106  and  _107
REMARK   50  A    between atoms: _110  and  _112
REMARK   51  A    between atoms: _112  and  _113
REMARK   52  A    between atoms: _115  and  _117
REMARK   53  A    between atoms: _117  and  _118
REMARK   54  A    between atoms: _117  and  _120
REMARK   55  A    between atoms: _120  and  _121
REMARK   56  A    between atoms: _123  and  _125
REMARK   57  A    between atoms: _125  and  _126
REMARK   58  A    between atoms: _125  and  _128
REMARK   59  A    between atoms: _128  and  _129
REMARK   60  A    between atoms: _132  and  _134
REMARK   61  A    between atoms: _134  and  _135
REMARK   62  A    between atoms: _134  and  _137
REMARK   63  A    between atoms: _137  and  _138
REMARK   64  A    between atoms: _143  and  _145
REMARK   65  A    between atoms: _145  and  _146
REMARK   66  A    between atoms: _149  and  _151
REMARK   67  A    between atoms: _151  and  _152
REMARK   68  A    between atoms: _151  and  _154
REMARK   69  A    between atoms: _154  and  _155
REMARK   70  A    between atoms: _157  and  _159
REMARK   71  A    between atoms: _159  and  _160
REMARK   72  A    between atoms: _162  and  _164
REMARK   73  A    between atoms: _164  and  _165
REMARK   74  A    between atoms: _164  and  _167
REMARK   75  A    between atoms: _167  and  _168
REMARK   76  A    between atoms: _171  and  _173
REMARK   77  A    between atoms: _173  and  _174
REMARK   78  A    between atoms: _173  and  _176
REMARK   79  A    between atoms: _176  and  _177
REMARK   80  A    between atoms: _177  and  _178
REMARK   81  A    between atoms: _183  and  _185
REMARK   82  A    between atoms: _185  and  _186
REMARK   83  A    between atoms: _185  and  _188
REMARK   84  A    between atoms: _188  and  _189
REMARK   85  A    between atoms: _195  and  _197
REMARK   86  A    between atoms: _197  and  _198
REMARK   87  A    between atoms: _197  and  _200
REMARK   88  A    between atoms: _203  and  _205
REMARK   89  A    between atoms: _205  and  _206
REMARK   90  A    between atoms: _205  and  _208
REMARK   91  A    between atoms: _208  and  _209
REMARK   92  A    between atoms: _214  and  _216
REMARK   93  A    between atoms: _216  and  _217
REMARK   94  A    between atoms: _216  and  _219
REMARK   95  A    between atoms: _219  and  _220
REMARK   96  A    between atoms: _222  and  _224
REMARK   97  A    between atoms: _224  and  _225
REMARK   98  A    between atoms: _224  and  _227
REMARK   99  A    between atoms: _227  and  _228
REMARK  100  A    between atoms: _228  and  _229
REMARK  101  A    between atoms: _229  and  _230
REMARK  102  A    between atoms: _230  and  _231
REMARK  103  A    between atoms: _235  and  _237
REMARK  104  A    between atoms: _237  and  _238
REMARK  105  A    between atoms: _237  and  _240
REMARK  106  A    between atoms: _240  and  _241
REMARK  107  A    between atoms: _244  and  _246
REMARK  108  A    between atoms: _246  and  _247
REMARK  109  A    between atoms: _250  and  _252
REMARK  110  A    between atoms: _252  and  _253
REMARK  111  A    between atoms: _252  and  _255
REMARK  112  A    between atoms: _258  and  _260
REMARK  113  A    between atoms: _260  and  _261
REMARK  114  A    between atoms: _260  and  _263
REMARK  115  A    between atoms: _263  and  _264
REMARK  116  A    between atoms: _264  and  _265
REMARK  117  A    between atoms: _268  and  _270
REMARK  118  A    between atoms: _270  and  _271
REMARK  119  A    between atoms: _270  and  _273
REMARK  120  A    between atoms: _273  and  _274
REMARK  121  A    between atoms: _274  and  _275
REMARK  122  A    between atoms: _277  and  _279
REMARK  123  A    between atoms: _279  and  _280
REMARK  124  A    between atoms: _279  and  _282
REMARK  125  A    between atoms: _282  and  _283
REMARK  126  A    between atoms: _283  and  _284
REMARK  127  A    between atoms: _287  and  _289
REMARK  128  A    between atoms: _289  and  _290
REMARK  129  A    between atoms: _292  and  _294
REMARK  130  A    between atoms: _294  and  _295
REMARK  131  A    between atoms: _294  and  _297
REMARK  132  A    between atoms: _297  and  _298
REMARK  133  A    between atoms: _298  and  _299
REMARK  134  A    between atoms: _299  and  _300
REMARK  135  A    between atoms: _309  and  _311
REMARK  136  A    between atoms: _311  and  _312
REMARK  137  A    between atoms: _311  and  _314
REMARK  138  A    between atoms: _314  and  _315
REMARK  139  A    between atoms: _317  and  _319
REMARK  140  A    between atoms: _319  and  _320
REMARK  141  A    between atoms: _319  and  _322
REMARK  142  A    between atoms: _322  and  _323
REMARK  143  A    between atoms: _326  and  _328
REMARK  144  A    between atoms: _328  and  _329
REMARK  145  A    between atoms: _328  and  _331
REMARK  146  A    between atoms: _331  and  _332
REMARK  147  A    between atoms: _334  and  _336
REMARK  148  A    between atoms: _336  and  _337
REMARK  149  A    between atoms: _336  and  _339
REMARK  150  A    between atoms: _339  and  _340
REMARK  151  A    between atoms: _343  and  _345
REMARK  152  A    between atoms: _345  and  _346
REMARK  153  A    between atoms: _345  and  _348
REMARK  154  A    between atoms: _348  and  _349
REMARK  155  A    between atoms: _354  and  _356
REMARK  156  A    between atoms: _356  and  _357
REMARK  157  A    between atoms: _360  and  _362
REMARK  158  A    between atoms: _362  and  _363
REMARK  159  A    between atoms: _362  and  _365
REMARK  160  A    between atoms: _365  and  _366
REMARK  161  A    between atoms: _369  and  _371
REMARK  162  A    between atoms: _371  and  _372
REMARK  163  A    between atoms: _375  and  _377
REMARK  164  A    between atoms: _377  and  _378
REMARK  165  A    between atoms: _380  and  _382
REMARK  166  A    between atoms: _382  and  _383
REMARK  167  A    between atoms: _382  and  _385
REMARK  168  A    between atoms: _385  and  _386
REMARK  169  A    between atoms: _388  and  _390
REMARK  170  A    between atoms: _390  and  _391
REMARK  171  A    between atoms: _390  and  _393
REMARK  172  A    between atoms: _393  and  _394
REMARK  173  A    between atoms: _400  and  _402
REMARK  174  A    between atoms: _402  and  _403
REMARK  175  A    between atoms: _402  and  _405
REMARK  176  A    between atoms: _405  and  _406
REMARK  177  A    between atoms: _409  and  _411
REMARK  178  A    between atoms: _411  and  _412
REMARK  179  A    between atoms: _411  and  _414
REMARK  180  A    between atoms: _414  and  _415
REMARK  181  A    between atoms: _418  and  _420
REMARK  182  A    between atoms: _420  and  _421
REMARK  183  A    between atoms: _420  and  _423
REMARK  184  A    between atoms: _423  and  _424
REMARK  185  A    between atoms: _426  and  _428
REMARK  186  A    between atoms: _428  and  _429
REMARK  187  A    between atoms: _428  and  _431
REMARK  188  A    between atoms: _431  and  _432
REMARK  189  A    between atoms: _435  and  _437
REMARK  190  A    between atoms: _437  and  _438
REMARK  191  A    between atoms: _437  and  _440
REMARK  192  A    between atoms: _440  and  _441
REMARK  193  A    between atoms: _444  and  _446
REMARK  194  A    between atoms: _446  and  _447
REMARK  195  A    between atoms: _446  and  _449
REMARK  196  A    between atoms: _449  and  _450
REMARK  197  A    between atoms: _452  and  _454
REMARK  198  A    between atoms: _454  and  _455
REMARK  199  A    between atoms: _458  and  _460
REMARK  200  A    between atoms: _460  and  _461
REMARK  201  A    between atoms: _460  and  _463
REMARK  202  A    between atoms: _463  and  _464
REMARK  203  A    between atoms: _470  and  _472
REMARK  204  A    between atoms: _472  and  _473
REMARK  205  A    between atoms: _472  and  _475
REMARK  206  A    between atoms: _475  and  _476
REMARK  207  A    between atoms: _479  and  _481
REMARK  208  A    between atoms: _481  and  _482
REMARK  209  A    between atoms: _481  and  _484
REMARK  210  A    between atoms: _484  and  _485
REMARK  211  A    between atoms: _490  and  _492
REMARK  212  A    between atoms: _492  and  _493
REMARK  213  A    between atoms: _492  and  _495
REMARK  214  A    between atoms: _495  and  _496
REMARK  215  A    between atoms: _502  and  _504
REMARK  216  A    between atoms: _504  and  _505
REMARK  217  A    between atoms: _504  and  _507
REMARK  218  A    between atoms: _507  and  _508
REMARK  219  A    between atoms: _512  and  _513
REMARK                            x       y       z     vdW  Elec       q    Type
REMARK                         _______ _______ _______ _____ _____    ______ ____
ROOT
ATOM      1  C   ALA A   3      -6.944  19.242 -31.360  0.00  0.00    +0.241 C 
ATOM      2  N   GLY A   4      -6.055  20.203 -31.198  0.00  0.00    -0.295 N 
ATOM      3  H   GLY A   4      -5.253  20.052 -30.553  0.00  0.00    +0.150 HD
ATOM      4  O   ALA A   3      -7.919  19.358 -32.091  0.00  0.00    -0.273 OA
ENDROOT
BRANCH   1   5
ATOM      5  CA  ALA A   3      -6.681  17.946 -30.603  0.00  0.00    +0.149 C 
ATOM      6  CB  ALA A   3      -5.606  17.144 -31.323  0.00  0.00    +0.031 C 
BRANCH   5   9
ATOM      7  C   VAL A   2      -7.995  16.217 -29.568  0.00  0.00    +0.241 C 
ATOM      8  O   VAL A   2      -7.175  16.057 -28.695  0.00  0.00    -0.273 OA
ATOM      9  N   ALA A   3      -7.879  17.157 -30.489  0.00  0.00    -0.297 N 
ATOM     10  H   ALA A   3      -8.668  17.330 -31.144  0.00  0.00    +0.150 HD
BRANCH   7  11
ATOM     11  CA  VAL A   2      -9.248  15.364 -29.617  0.00  0.00    +0.148 C 
BRANCH  11  13
ATOM     12  C   GLY A   1      -9.239  12.967 -29.291  0.00  0.00    +0.240 C 
ATOM     13  N   VAL A   2      -9.115  14.185 -28.769  0.00  0.00    -0.297 N 
ATOM     14  H   VAL A   2      -8.923  14.296 -27.753  0.00  0.00    +0.150 HD
ATOM     15  O   GLY A   1      -9.396  12.768 -30.511  0.00  0.00    -0.274 OA
BRANCH  12  16
ATOM     16  CA  GLY A   1      -9.172  11.824 -28.299  0.00  0.00    +0.169 C 
BRANCH  16  17
ATOM     17  N   GLY A   1      -8.827  10.542 -28.903  0.00  0.00    -0.236 NA
ATOM     18  H   GLY A   1      -8.874  10.443 -29.937  0.00  0.00    +0.142 HD
ENDBRANCH  16  17
ENDBRANCH  12  16
ENDBRANCH  11  13
BRANCH  11  19
ATOM     19  CB  VAL A   2     -10.506  16.179 -29.234  0.00  0.00    +0.027 C 
ATOM     20  CG2 VAL A   2     -10.297  16.971 -27.953  0.00  0.00    +0.002 C 
ATOM     21  CG1 VAL A   2     -11.725  15.247 -29.085  0.00  0.00    +0.002 C 
ENDBRANCH  11  19
ENDBRANCH   7  11
ENDBRANCH   5   9
ENDBRANCH   1   5
BRANCH   2  22
ATOM     22  CA  GLY A   4      -6.174  21.470 -31.904  0.00  0.00    +0.176 C 
BRANCH  22  23
ATOM     23  C   GLY A   4      -5.395  21.418 -33.194  0.00  0.00    +0.243 C 
ATOM     24  O   GLY A   4      -4.277  20.923 -33.234  0.00  0.00    -0.273 OA
ATOM     25  N   SER A   5      -5.998  21.917 -34.255  0.00  0.00    -0.295 N 
ATOM     26  H   SER A   5      -6.958  22.304 -34.151  0.00  0.00    +0.150 HD
BRANCH  25  27
ATOM     27  CA  SER A   5      -5.372  21.945 -35.559  0.00  0.00    +0.178 C 
BRANCH  27  28
ATOM     28  C   SER A   5      -4.425  23.110 -35.707  0.00  0.00    +0.243 C 
ATOM     29  O   SER A   5      -4.749  24.230 -35.308  0.00  0.00    -0.273 OA
ATOM     30  N   LEU A   6      -3.287  22.833 -36.339  0.00  0.00    -0.298 N 
ATOM     31  H   LEU A   6      -3.112  21.846 -36.618  0.00  0.00    +0.150 HD
BRANCH  30  32
ATOM     32  CA  LEU A   6      -2.260  23.835 -36.668  0.00  0.00    +0.137 C 
BRANCH  32  33
ATOM     33  C   LEU A   6      -2.137  24.072 -38.182  0.00  0.00    +0.227 C 
ATOM     34  O   LEU A   6      -1.270  24.822 -38.624  0.00  0.00    -0.286 OA
ENDBRANCH  32  33
BRANCH  32  35
ATOM     35  CB  LEU A   6      -0.903  23.352 -36.164  0.00  0.00    +0.028 C 
BRANCH  35  36
ATOM     36  CG  LEU A   6      -0.836  23.026 -34.682  0.00  0.00    +0.002 C 
ATOM     37  CD2 LEU A   6      -1.151  24.259 -33.851  0.00  0.00    +0.000 C 
ATOM     38  CD1 LEU A   6       0.520  22.429 -34.311  0.00  0.00    +0.000 C 
ENDBRANCH  35  36
ENDBRANCH  32  35
ENDBRANCH  30  32
ENDBRANCH  27  28
BRANCH  27  39
ATOM     39  CB  SER A   5      -6.431  22.081 -36.653  0.00  0.00    +0.166 C 
BRANCH  39  40
ATOM     40  OG  SER A   5      -5.789  22.320 -37.892  0.00  0.00    -0.380 OA
ATOM     41  H   SER A   5      -6.471  22.409 -38.604  0.00  0.00    +0.211 HD
ENDBRANCH  39  40
ENDBRANCH  27  39
ENDBRANCH  25  27
ENDBRANCH  22  23
ENDBRANCH   2  22
TORSDOF 17
REMARK  Name = ../refined-set-2016/4yo8/4yo8_pocket.pdb
REMARK  219 active torsions:
REMARK  status: ('A' for Active; 'I' for Inactive)
REMARK    1  A    between atoms: _1  and  _3
REMARK    2  A    between atoms: _3  and  _4
REMARK    3  A    between atoms: _6  and  _8
REMARK    4  A    between atoms: _8  and  _9
REMARK    5  A    between atoms: _12  and  _14
REMARK    6  A    between atoms: _14  and  _15
REMARK    7  A    between atoms: _14  and  _17
REMARK    8  A    between atoms: _17  and  _18
REMARK    9  A    between atoms: _18  and  _19
REMARK   10  A    between atoms: _21  and  _23
REMARK   11  A    between atoms: _23  and  _24
REMARK   12  A    between atoms: _23  and  _26
REMARK   13  A    between atoms: _26  and  _27
REMARK   14  A    between atoms: _27  and  _28
REMARK   15  A    between atoms: _31  and  _33
REMARK   16  A    between atoms: _33  and  _34
REMARK   17  A    between atoms: _33  and  _36
REMARK   18  A    between atoms: _36  and  _37
REMARK   19  A    between atoms: _39  and  _41
REMARK   20  A    between atoms: _41  and  _42
REMARK   21  A    between atoms: _41  and  _44
REMARK   22  A    between atoms: _44  and  _45
REMARK   23  A    between atoms: _45  and  _46
REMARK   24  A    between atoms: _46  and  _47
REMARK   25  A    between atoms: _47  and  _48
REMARK   26  A    between atoms: _52  and  _54
REMARK   27  A    between atoms: _54  and  _55
REMARK   28  A    between atoms: _54  and  _57
REMARK   29  A    between atoms: _57  and  _58
REMARK   30  A    between atoms: _61  and  _63
REMARK   31  A    between atoms: _63  and  _64
REMARK   32  A    between atoms: _66  and  _68
REMARK   33  A    between atoms: _68  and  _69
REMARK   34  A    between atoms: _68  and  _71
REMARK   35  A    between atoms: _71  and  _72
REMARK   36  A    between atoms: _72  and  _73
REMARK   37  A    between atoms: _73  and  _74
REMARK   38  A    between atoms: _74  and  _75
REMARK   39  A    between atoms: _79  and  _81
REMARK   40  A    between atoms: _81  and  _82
REMARK   41  A    between atoms: _81  and  _84
REMARK   42  A    between atoms: _84  and  _85
REMARK   43  A    between atoms: _91  and  _93
REMARK   44  A    between atoms: _93  and  _94
REMARK   45  A    between atoms: _96  and  _98
REMARK   46  A    between atoms: _98  and  _99
REMARK   47  A    between atoms: _98  and  _101
REMARK   48  A    between atoms: _104  and  _106
REMARK   49  A    between atoms: _106  and  _107
REMARK   50  A    between atoms: _110  and  _112
REMARK   51  A    between atoms: _112  and  _113
REMARK   52  A    between atoms: _115  and  _117
REMARK   53  A    between atoms: _117  and  _118
REMARK   54  A    between atoms: _117  and  _120
REMARK   55  A    between atoms: _120  and  _121
REMARK   56  A    between atoms: _123  and  _125
REMARK   57  A    between atoms: _125  and  _126
REMARK   58  A    between atoms: _125  and  _128
REMARK   59  A    between atoms: _128  and  _129
REMARK   60  A    between atoms: _132  and  _134
REMARK   61  A    between atoms: _134  and  _135
REMARK   62  A    between atoms: _134  and  _137
REMARK   63  A    between atoms: _137  and  _138
REMARK   64  A    between atoms: _143  and  _145
REMARK   65  A    between atoms: _145  and  _146
REMARK   66  A    between atoms: _149  and  _151
REMARK   67  A    between atoms: _151  and  _152
REMARK   68  A    between atoms: _151  and  _154
REMARK   69  A    between atoms: _154  and  _155
REMARK   70  A    between atoms: _157  and  _159
REMARK   71  A    between atoms: _159  and  _160
REMARK   72  A    between atoms: _162  and  _164
REMARK   73  A    between atoms: _164  and  _165
REMARK   74  A    between atoms: _164  and  _167
REMARK   75  A    between atoms: _167  and  _168
REMARK   76  A    between atoms: _171  and  _173
REMARK   77  A    between atoms: _173  and  _174
REMARK   78  A    between atoms: _173  and  _176
REMARK   79  A    between atoms: _176  and  _177
REMARK   80  A    between atoms: _177  and  _178
REMARK   81  A    between atoms: _183  and  _185
REMARK   82  A    between atoms: _185  and  _186
REMARK   83  A    between atoms: _185  and  _188
REMARK   84  A    between atoms: _188  and  _189
REMARK   85  A    between atoms: _195  and  _197
REMARK   86  A    between atoms: _197  and  _198
REMARK   87  A    between atoms: _197  and  _200
REMARK   88  A    between atoms: _203  and  _205
REMARK   89  A    between atoms: _205  and  _206
REMARK   90  A    between atoms: _205  and  _208
REMARK   91  A    between atoms: _208  and  _209
REMARK   92  A    between atoms: _214  and  _216
REMARK   93  A    between atoms: _216  and  _217
REMARK   94  A    between atoms: _216  and  _219
REMARK   95  A    between atoms: _219  and  _220
REMARK   96  A    between atoms: _222  and  _224
REMARK   97  A    between atoms: _224  and  _225
REMARK   98  A    between atoms: _224  and  _227
REMARK   99  A    between atoms: _227  and  _228
REMARK  100  A    between atoms: _228  and  _229
REMARK  101  A    between atoms: _229  and  _230
REMARK  102  A    between atoms: _230  and  _231
REMARK  103  A    between atoms: _235  and  _237
REMARK  104  A    between atoms: _237  and  _238
REMARK  105  A    between atoms: _237  and  _240
REMARK  106  A    between atoms: _240  and  _241
REMARK  107  A    between atoms: _244  and  _246
REMARK  108  A    between atoms: _246  and  _247
REMARK  109  A    between atoms: _250  and  _252
REMARK  110  A    between atoms: _252  and  _253
REMARK  111  A    between atoms: _252  and  _255
REMARK  112  A    between atoms: _258  and  _260
REMARK  113  A    between atoms: _260  and  _261
REMARK  114  A    between atoms: _260  and  _263
REMARK  115  A    between atoms: _263  and  _264
REMARK  116  A    between atoms: _264  and  _265
REMARK  117  A    between atoms: _268  and  _270
REMARK  118  A    between atoms: _270  and  _271
REMARK  119  A    between atoms: _270  and  _273
REMARK  120  A    between atoms: _273  and  _274
REMARK  121  A    between atoms: _274  and  _275
REMARK  122  A    between atoms: _277  and  _279
REMARK  123  A    between atoms: _279  and  _280
REMARK  124  A    between atoms: _279  and  _282
REMARK  125  A    between atoms: _282  and  _283
REMARK  126  A    between atoms: _283  and  _284
REMARK  127  A    between atoms: _287  and  _289
REMARK  128  A    between atoms: _289  and  _290
REMARK  129  A    between atoms: _292  and  _294
REMARK  130  A    between atoms: _294  and  _295
REMARK  131  A    between atoms: _294  and  _297
REMARK  132  A    between atoms: _297  and  _298
REMARK  133  A    between atoms: _298  and  _299
REMARK  134  A    between atoms: _299  and  _300
REMARK  135  A    between atoms: _309  and  _311
REMARK  136  A    between atoms: _311  and  _312
REMARK  137  A    between atoms: _311  and  _314
REMARK  138  A    between atoms: _314  and  _315
REMARK  139  A    between atoms: _317  and  _319
REMARK  140  A    between atoms: _319  and  _320
REMARK  141  A    between atoms: _319  and  _322
REMARK  142  A    between atoms: _322  and  _323
REMARK  143  A    between atoms: _326  and  _328
REMARK  144  A    between atoms: _328  and  _329
REMARK  145  A    between atoms: _328  and  _331
REMARK  146  A    between atoms: _331  and  _332
REMARK  147  A    between atoms: _334  and  _336
REMARK  148  A    between atoms: _336  and  _337
REMARK  149  A    between atoms: _336  and  _339
REMARK  150  A    between atoms: _339  and  _340
REMARK  151  A    between atoms: _343  and  _345
REMARK  152  A    between atoms: _345  and  _346
REMARK  153  A    between atoms: _345  and  _348
REMARK  154  A    between atoms: _348  and  _349
REMARK  155  A    between atoms: _354  and  _356
REMARK  156  A    between atoms: _356  and  _357
REMARK  157  A    between atoms: _360  and  _362
REMARK  158  A    between atoms: _362  and  _363
REMARK  159  A    between atoms: _362  and  _365
REMARK  160  A    between atoms: _365  and  _366
REMARK  161  A    between atoms: _369  and  _371
REMARK  162  A    between atoms: _371  and  _372
REMARK  163  A    between atoms: _375  and  _377
REMARK  164  A    between atoms: _377  and  _378
REMARK  165  A    between atoms: _380  and  _382
REMARK  166  A    between atoms: _382  and  _383
REMARK  167  A    between atoms: _382  and  _385
REMARK  168  A    between atoms: _385  and  _386
REMARK  169  A    between atoms: _388  and  _390
REMARK  170  A    between atoms: _390  and  _391
REMARK  171  A    between atoms: _390  and  _393
REMARK  172  A    between atoms: _393  and  _394
REMARK  173  A    between atoms: _400  and  _402
REMARK  174  A    between atoms: _402  and  _403
REMARK  175  A    between atoms: _402  and  _405
REMARK  176  A    between atoms: _405  and  _406
REMARK  177  A    between atoms: _409  and  _411
REMARK  178  A    between atoms: _411  and  _412
REMARK  179  A    between atoms: _411  and  _414
REMARK  180  A    between atoms: _414  and  _415
REMARK  181  A    between atoms: _418  and  _420
REMARK  182  A    between atoms: _420  and  _421
REMARK  183  A    between atoms: _420  and  _423
REMARK  184  A    between atoms: _423  and  _424
REMARK  185  A    between atoms: _426  and  _428
REMARK  186  A    between atoms: _428  and  _429
REMARK  187  A    between atoms: _428  and  _431
REMARK  188  A    between atoms: _431  and  _432
REMARK  189  A    between atoms: _435  and  _437
REMARK  190  A    between atoms: _437  and  _438
REMARK  191  A    between atoms: _437  and  _440
REMARK  192  A    between atoms: _440  and  _441
REMARK  193  A    between atoms: _444  and  _446
REMARK  194  A    between atoms: _446  and  _447
REMARK  195  A    between atoms: _446  and  _449
REMARK  196  A    between atoms: _449  and  _450
REMARK  197  A    between atoms: _452  and  _454
REMARK  198  A    between atoms: _454  and  _455
REMARK  199  A    between atoms: _458  and  _460
REMARK  200  A    between atoms: _460  and  _461
REMARK  201  A    between atoms: _460  and  _463
REMARK  202  A    between atoms: _463  and  _464
REMARK  203  A    between atoms: _470  and  _472
REMARK  204  A    between atoms: _472  and  _473
REMARK  205  A    between atoms: _472  and  _475
REMARK  206  A    between atoms: _475  and  _476
REMARK  207  A    between atoms: _479  and  _481
REMARK  208  A    between atoms: _481  and  _482
REMARK  209  A    between atoms: _481  and  _484
REMARK  210  A    between atoms: _484  and  _485
REMARK  211  A    between atoms: _490  and  _492
REMARK  212  A    between atoms: _492  and  _493
REMARK  213  A    between atoms: _492  and  _495
REMARK  214  A    between atoms: _495  and  _496
REMARK  215  A    between atoms: _502  and  _504
REMARK  216  A    between atoms: _504  and  _505
REMARK  217  A    between atoms: _504  and  _507
REMARK  218  A    between atoms: _507  and  _508
REMARK  219  A    between atoms: _512  and  _513
REMARK                            x       y       z     vdW  Elec       q    Type
REMARK                         _______ _______ _______ _____ _____    ______ ____
ROOT
ATOM      1  CB  HIS A   1       5.789  21.583 -28.247  0.00  0.00    +0.072 C 
ENDROOT
BRANCH   1   2
ATOM      2  CG  HIS A   1       4.564  21.965 -27.475  0.00  0.00    +0.082 A 
ATOM      3  ND1 HIS A   1       4.482  23.132 -26.760  0.00  0.00    -0.227 NA
ATOM      4  CE1 HIS A   1       3.285  23.242 -26.220  0.00  0.00    +0.199 A 
ATOM      5  NE2 HIS A   1       2.565  22.199 -26.590  0.00  0.00    -0.221 NA
ATOM      6  CD2 HIS A   1       3.337  21.392 -27.394  0.00  0.00    +0.115 A 
ENDBRANCH   1   2
BRANCH   1   7
ATOM      7  CA  HIS A   1       6.974  21.108 -27.395  0.00  0.00    +0.139 C 
BRANCH   7   8
ATOM      8  N   HIS A   1       6.676  19.803 -26.815  0.00  0.00    -0.239 NA
ATOM      9  H   HIS A   1       5.697  19.570 -26.554  0.00  0.00    +0.142 HD
ENDBRANCH   7   8
BRANCH   7  10
ATOM     10  C   HIS A   1       7.410  22.156 -26.370  0.00  0.00    +0.224 C 
ATOM     11  O   HIS A   1       7.965  23.191 -26.724  0.00  0.00    -0.287 OA
ENDBRANCH   7  10
ENDBRANCH   1   7
TORSDOF 4
REMARK  Name = ../refined-set-2016/4yo8/4yo8_pocket.pdb
REMARK  219 active torsions:
REMARK  status: ('A' for Active; 'I' for Inactive)
REMARK    1  A    between atoms: _1  and  _3
REMARK    2  A    between atoms: _3  and  _4
REMARK    3  A    between atoms: _6  and  _8
REMARK    4  A    between atoms: _8  and  _9
REMARK    5  A    between atoms: _12  and  _14
REMARK    6  A    between atoms: _14  and  _15
REMARK    7  A    between atoms: _14  and  _17
REMARK    8  A    between atoms: _17  and  _18
REMARK    9  A    between atoms: _18  and  _19
REMARK   10  A    between atoms: _21  and  _23
REMARK   11  A    between atoms: _23  and  _24
REMARK   12  A    between atoms: _23  and  _26
REMARK   13  A    between atoms: _26  and  _27
REMARK   14  A    between atoms: _27  and  _28
REMARK   15  A    between atoms: _31  and  _33
REMARK   16  A    between atoms: _33  and  _34
REMARK   17  A    between atoms: _33  and  _36
REMARK   18  A    between atoms: _36  and  _37
REMARK   19  A    between atoms: _39  and  _41
REMARK   20  A    between atoms: _41  and  _42
REMARK   21  A    between atoms: _41  and  _44
REMARK   22  A    between atoms: _44  and  _45
REMARK   23  A    between atoms: _45  and  _46
REMARK   24  A    between atoms: _46  and  _47
REMARK   25  A    between atoms: _47  and  _48
REMARK   26  A    between atoms: _52  and  _54
REMARK   27  A    between atoms: _54  and  _55
REMARK   28  A    between atoms: _54  and  _57
REMARK   29  A    between atoms: _57  and  _58
REMARK   30  A    between atoms: _61  and  _63
REMARK   31  A    between atoms: _63  and  _64
REMARK   32  A    between atoms: _66  and  _68
REMARK   33  A    between atoms: _68  and  _69
REMARK   34  A    between atoms: _68  and  _71
REMARK   35  A    between atoms: _71  and  _72
REMARK   36  A    between atoms: _72  and  _73
REMARK   37  A    between atoms: _73  and  _74
REMARK   38  A    between atoms: _74  and  _75
REMARK   39  A    between atoms: _79  and  _81
REMARK   40  A    between atoms: _81  and  _82
REMARK   41  A    between atoms: _81  and  _84
REMARK   42  A    between atoms: _84  and  _85
REMARK   43  A    between atoms: _91  and  _93
REMARK   44  A    between atoms: _93  and  _94
REMARK   45  A    between atoms: _96  and  _98
REMARK   46  A    between atoms: _98  and  _99
REMARK   47  A    between atoms: _98  and  _101
REMARK   48  A    between atoms: _104  and  _106
REMARK   49  A    between atoms: _106  and  _107
REMARK   50  A    between atoms: _110  and  _112
REMARK   51  A    between atoms: _112  and  _113
REMARK   52  A    between atoms: _115  and  _117
REMARK   53  A    between atoms: _117  and  _118
REMARK   54  A    between atoms: _117  and  _120
REMARK   55  A    between atoms: _120  and  _121
REMARK   56  A    between atoms: _123  and  _125
REMARK   57  A    between atoms: _125  and  _126
REMARK   58  A    between atoms: _125  and  _128
REMARK   59  A    between atoms: _128  and  _129
REMARK   60  A    between atoms: _132  and  _134
REMARK   61  A    between atoms: _134  and  _135
REMARK   62  A    between atoms: _134  and  _137
REMARK   63  A    between atoms: _137  and  _138
REMARK   64  A    between atoms: _143  and  _145
REMARK   65  A    between atoms: _145  and  _146
REMARK   66  A    between atoms: _149  and  _151
REMARK   67  A    between atoms: _151  and  _152
REMARK   68  A    between atoms: _151  and  _154
REMARK   69  A    between atoms: _154  and  _155
REMARK   70  A    between atoms: _157  and  _159
REMARK   71  A    between atoms: _159  and  _160
REMARK   72  A    between atoms: _162  and  _164
REMARK   73  A    between atoms: _164  and  _165
REMARK   74  A    between atoms: _164  and  _167
REMARK   75  A    between atoms: _167  and  _168
REMARK   76  A    between atoms: _171  and  _173
REMARK   77  A    between atoms: _173  and  _174
REMARK   78  A    between atoms: _173  and  _176
REMARK   79  A    between atoms: _176  and  _177
REMARK   80  A    between atoms: _177  and  _178
REMARK   81  A    between atoms: _183  and  _185
REMARK   82  A    between atoms: _185  and  _186
REMARK   83  A    between atoms: _185  and  _188
REMARK   84  A    between atoms: _188  and  _189
REMARK   85  A    between atoms: _195  and  _197
REMARK   86  A    between atoms: _197  and  _198
REMARK   87  A    between atoms: _197  and  _200
REMARK   88  A    between atoms: _203  and  _205
REMARK   89  A    between atoms: _205  and  _206
REMARK   90  A    between atoms: _205  and  _208
REMARK   91  A    between atoms: _208  and  _209
REMARK   92  A    between atoms: _214  and  _216
REMARK   93  A    between atoms: _216  and  _217
REMARK   94  A    between atoms: _216  and  _219
REMARK   95  A    between atoms: _219  and  _220
REMARK   96  A    between atoms: _222  and  _224
REMARK   97  A    between atoms: _224  and  _225
REMARK   98  A    between atoms: _224  and  _227
REMARK   99  A    between atoms: _227  and  _228
REMARK  100  A    between atoms: _228  and  _229
REMARK  101  A    between atoms: _229  and  _230
REMARK  102  A    between atoms: _230  and  _231
REMARK  103  A    between atoms: _235  and  _237
REMARK  104  A    between atoms: _237  and  _238
REMARK  105  A    between atoms: _237  and  _240
REMARK  106  A    between atoms: _240  and  _241
REMARK  107  A    between atoms: _244  and  _246
REMARK  108  A    between atoms: _246  and  _247
REMARK  109  A    between atoms: _250  and  _252
REMARK  110  A    between atoms: _252  and  _253
REMARK  111  A    between atoms: _252  and  _255
REMARK  112  A    between atoms: _258  and  _260
REMARK  113  A    between atoms: _260  and  _261
REMARK  114  A    between atoms: _260  and  _263
REMARK  115  A    between atoms: _263  and  _264
REMARK  116  A    between atoms: _264  and  _265
REMARK  117  A    between atoms: _268  and  _270
REMARK  118  A    between atoms: _270  and  _271
REMARK  119  A    between atoms: _270  and  _273
REMARK  120  A    between atoms: _273  and  _274
REMARK  121  A    between atoms: _274  and  _275
REMARK  122  A    between atoms: _277  and  _279
REMARK  123  A    between atoms: _279  and  _280
REMARK  124  A    between atoms: _279  and  _282
REMARK  125  A    between atoms: _282  and  _283
REMARK  126  A    between atoms: _283  and  _284
REMARK  127  A    between atoms: _287  and  _289
REMARK  128  A    between atoms: _289  and  _290
REMARK  129  A    between atoms: _292  and  _294
REMARK  130  A    between atoms: _294  and  _295
REMARK  131  A    between atoms: _294  and  _297
REMARK  132  A    between atoms: _297  and  _298
REMARK  133  A    between atoms: _298  and  _299
REMARK  134  A    between atoms: _299  and  _300
REMARK  135  A    between atoms: _309  and  _311
REMARK  136  A    between atoms: _311  and  _312
REMARK  137  A    between atoms: _311  and  _314
REMARK  138  A    between atoms: _314  and  _315
REMARK  139  A    between atoms: _317  and  _319
REMARK  140  A    between atoms: _319  and  _320
REMARK  141  A    between atoms: _319  and  _322
REMARK  142  A    between atoms: _322  and  _323
REMARK  143  A    between atoms: _326  and  _328
REMARK  144  A    between atoms: _328  and  _329
REMARK  145  A    between atoms: _328  and  _331
REMARK  146  A    between atoms: _331  and  _332
REMARK  147  A    between atoms: _334  and  _336
REMARK  148  A    between atoms: _336  and  _337
REMARK  149  A    between atoms: _336  and  _339
REMARK  150  A    between atoms: _339  and  _340
REMARK  151  A    between atoms: _343  and  _345
REMARK  152  A    between atoms: _345  and  _346
REMARK  153  A    between atoms: _345  and  _348
REMARK  154  A    between atoms: _348  and  _349
REMARK  155  A    between atoms: _354  and  _356
REMARK  156  A    between atoms: _356  and  _357
REMARK  157  A    between atoms: _360  and  _362
REMARK  158  A    between atoms: _362  and  _363
REMARK  159  A    between atoms: _362  and  _365
REMARK  160  A    between atoms: _365  and  _366
REMARK  161  A    between atoms: _369  and  _371
REMARK  162  A    between atoms: _371  and  _372
REMARK  163  A    between atoms: _375  and  _377
REMARK  164  A    between atoms: _377  and  _378
REMARK  165  A    between atoms: _380  and  _382
REMARK  166  A    between atoms: _382  and  _383
REMARK  167  A    between atoms: _382  and  _385
REMARK  168  A    between atoms: _385  and  _386
REMARK  169  A    between atoms: _388  and  _390
REMARK  170  A    between atoms: _390  and  _391
REMARK  171  A    between atoms: _390  and  _393
REMARK  172  A    between atoms: _393  and  _394
REMARK  173  A    between atoms: _400  and  _402
REMARK  174  A    between atoms: _402  and  _403
REMARK  175  A    between atoms: _402  and  _405
REMARK  176  A    between atoms: _405  and  _406
REMARK  177  A    between atoms: _409  and  _411
REMARK  178  A    between atoms: _411  and  _412
REMARK  179  A    between atoms: _411  and  _414
REMARK  180  A    between atoms: _414  and  _415
REMARK  181  A    between atoms: _418  and  _420
REMARK  182  A    between atoms: _420  and  _421
REMARK  183  A    between atoms: _420  and  _423
REMARK  184  A    between atoms: _423  and  _424
REMARK  185  A    between atoms: _426  and  _428
REMARK  186  A    between atoms: _428  and  _429
REMARK  187  A    between atoms: _428  and  _431
REMARK  188  A    between atoms: _431  and  _432
REMARK  189  A    between atoms: _435  and  _437
REMARK  190  A    between atoms: _437  and  _438
REMARK  191  A    between atoms: _437  and  _440
REMARK  192  A    between atoms: _440  and  _441
REMARK  193  A    between atoms: _444  and  _446
REMARK  194  A    between atoms: _446  and  _447
REMARK  195  A    between atoms: _446  and  _449
REMARK  196  A    between atoms: _449  and  _450
REMARK  197  A    between atoms: _452  and  _454
REMARK  198  A    between atoms: _454  and  _455
REMARK  199  A    between atoms: _458  and  _460
REMARK  200  A    between atoms: _460  and  _461
REMARK  201  A    between atoms: _460  and  _463
REMARK  202  A    between atoms: _463  and  _464
REMARK  203  A    between atoms: _470  and  _472
REMARK  204  A    between atoms: _472  and  _473
REMARK  205  A    between atoms: _472  and  _475
REMARK  206  A    between atoms: _475  and  _476
REMARK  207  A    between atoms: _479  and  _481
REMARK  208  A    between atoms: _481  and  _482
REMARK  209  A    between atoms: _481  and  _484
REMARK  210  A    between atoms: _484  and  _485
REMARK  211  A    between atoms: _490  and  _492
REMARK  212  A    between atoms: _492  and  _493
REMARK  213  A    between atoms: _492  and  _495
REMARK  214  A    between atoms: _495  and  _496
REMARK  215  A    between atoms: _502  and  _504
REMARK  216  A    between atoms: _504  and  _505
REMARK  217  A    between atoms: _504  and  _507
REMARK  218  A    between atoms: _507  and  _508
REMARK  219  A    between atoms: _512  and  _513
REMARK                            x       y       z     vdW  Elec       q    Type
REMARK                         _______ _______ _______ _____ _____    ______ ____
ROOT
ATOM      1  C   GLN A   5      -1.434  23.855 -22.889  0.00  0.00    +0.241 C 
ATOM      2  N   PHE A   6      -2.616  24.397 -22.649  0.00  0.00    -0.297 N 
ATOM      3  H   PHE A   6      -2.828  24.749 -21.694  0.00  0.00    +0.150 HD
ATOM      4  O   GLN A   5      -1.170  23.224 -23.923  0.00  0.00    -0.273 OA
ENDROOT
BRANCH   2   5
ATOM      5  CA  PHE A   6      -3.625  24.512 -23.687  0.00  0.00    +0.153 C 
BRANCH   5   6
ATOM      6  C   PHE A   6      -3.196  25.639 -24.605  0.00  0.00    +0.241 C 
ATOM      7  O   PHE A   6      -2.936  26.728 -24.134  0.00  0.00    -0.273 OA
ATOM      8  N   VAL A   7      -3.129  25.387 -25.906  0.00  0.00    -0.297 N 
ATOM      9  H   VAL A   7      -3.443  24.463 -26.266  0.00  0.00    +0.150 HD
BRANCH   8  10
ATOM     10  CA  VAL A   7      -2.623  26.382 -26.835  0.00  0.00    +0.149 C 
BRANCH  10  11
ATOM     11  C   VAL A   7      -3.790  27.168 -27.429  0.00  0.00    +0.241 C 
ATOM     12  N   HIS A   8      -3.738  28.490 -27.330  0.00  0.00    -0.297 N 
ATOM     13  H   HIS A   8      -2.902  28.941 -26.907  0.00  0.00    +0.150 HD
ATOM     14  O   VAL A   7      -4.735  26.592 -27.960  0.00  0.00    -0.273 OA
BRANCH  12  15
ATOM     15  CA  HIS A   8      -4.853  29.327 -27.813  0.00  0.00    +0.155 C 
BRANCH  15  16
ATOM     16  C   HIS A   8      -4.361  30.687 -28.213  0.00  0.00    +0.241 C 
ATOM     17  O   HIS A   8      -4.923  31.692 -27.812  0.00  0.00    -0.273 OA
ATOM     18  N   SER A   9      -3.301  30.700 -29.011  0.00  0.00    -0.296 N 
ATOM     19  H   SER A   9      -2.871  29.799 -29.301  0.00  0.00    +0.150 HD
BRANCH  18  20
ATOM     20  CA  SER A   9      -2.732  31.939 -29.485  0.00  0.00    +0.166 C 
BRANCH  20  21
ATOM     21  C   SER A   9      -2.022  31.696 -30.799  0.00  0.00    +0.229 C 
ATOM     22  O   SER A   9      -1.497  30.619 -31.058  0.00  0.00    -0.286 OA
ENDBRANCH  20  21
BRANCH  20  23
ATOM     23  CB  SER A   9      -1.764  32.539 -28.458  0.00  0.00    +0.165 C 
BRANCH  23  24
ATOM     24  OG  SER A   9      -0.543  31.832 -28.425  0.00  0.00    -0.380 OA
ATOM     25  H   SER A   9      -0.716  30.888 -28.180  0.00  0.00    +0.211 HD
ENDBRANCH  23  24
ENDBRANCH  20  23
ENDBRANCH  18  20
ENDBRANCH  15  16
BRANCH  15  26
ATOM     26  CB  HIS A   8      -5.964  29.446 -26.758  0.00  0.00    +0.076 C 
BRANCH  26  27
ATOM     27  CG  HIS A   8      -5.510  30.027 -25.456  0.00  0.00    +0.082 A 
ATOM     28  CD2 HIS A   8      -4.613  29.582 -24.544  0.00  0.00    +0.115 A 
ATOM     29  NE2 HIS A   8      -4.571  30.508 -23.527  0.00  0.00    -0.221 NA
ATOM     30  CE1 HIS A   8      -5.410  31.491 -23.809  0.00  0.00    +0.199 A 
ATOM     31  ND1 HIS A   8      -5.990  31.222 -24.968  0.00  0.00    -0.227 NA
ENDBRANCH  26  27
ENDBRANCH  15  26
ENDBRANCH  12  15
ENDBRANCH  10  11
BRANCH  10  32
ATOM     32  CB  VAL A   7      -1.793  25.710 -27.946  0.00  0.00    +0.027 C 
ATOM     33  CG2 VAL A   7      -0.557  25.049 -27.336  0.00  0.00    +0.002 C 
ATOM     34  CG1 VAL A   7      -1.395  26.718 -29.018  0.00  0.00    +0.002 C 
ENDBRANCH  10  32
ENDBRANCH   8  10
ENDBRANCH   5   6
BRANCH   5  35
ATOM     35  CB  PHE A   6      -4.968  24.843 -23.078  0.00  0.00    +0.055 C 
BRANCH  35  36
ATOM     36  CG  PHE A   6      -6.091  24.817 -24.059  0.00  0.00    -0.020 A 
ATOM     37  CD2 PHE A   6      -6.618  23.612 -24.475  0.00  0.00    -0.004 A 
ATOM     38  CE2 PHE A   6      -7.653  23.568 -25.387  0.00  0.00    -0.000 A 
ATOM     39  CZ  PHE A   6      -8.178  24.751 -25.887  0.00  0.00    -0.000 A 
ATOM     40  CE1 PHE A   6      -7.656  25.972 -25.475  0.00  0.00    -0.000 A 
ATOM     41  CD1 PHE A   6      -6.616  25.995 -24.562  0.00  0.00    -0.004 A 
ENDBRANCH  35  36
ENDBRANCH   5  35
ENDBRANCH   2   5
BRANCH   1  42
ATOM     42  CA  GLN A   5      -0.399  24.077 -21.823  0.00  0.00    +0.149 C 
BRANCH  42  45
ATOM     43  C   ASP A   4       0.686  22.300 -20.521  0.00  0.00    +0.241 C 
ATOM     44  O   ASP A   4       0.354  22.812 -19.462  0.00  0.00    -0.273 OA
ATOM     45  N   GLN A   5       0.451  22.883 -21.699  0.00  0.00    -0.297 N 
ATOM     46  H   GLN A   5       0.882  22.480 -22.555  0.00  0.00    +0.150 HD
BRANCH  43  47
ATOM     47  CA  ASP A   4       1.363  20.923 -20.535  0.00  0.00    +0.160 C 
BRANCH  47  49
ATOM     48  C   GLY A   3       1.753  20.310 -22.817  0.00  0.00    +0.243 C 
ATOM     49  N   ASP A   4       2.216  20.795 -21.675  0.00  0.00    -0.296 N 
ATOM     50  H   ASP A   4       3.212  21.086 -21.607  0.00  0.00    +0.150 HD
ATOM     51  O   GLY A   3       0.564  20.021 -22.988  0.00  0.00    -0.273 OA
BRANCH  48  52
ATOM     52  CA  GLY A   3       2.789  20.101 -23.912  0.00  0.00    +0.176 C 
BRANCH  52  54
ATOM     53  C   SER A   2       2.971  18.566 -25.814  0.00  0.00    +0.243 C 
ATOM     54  N   GLY A   3       2.220  19.282 -24.988  0.00  0.00    -0.295 N 
ATOM     55  H   GLY A   3       1.187  19.262 -25.108  0.00  0.00    +0.150 HD
ATOM     56  O   SER A   2       4.182  18.521 -25.736  0.00  0.00    -0.273 OA
BRANCH  53  57
ATOM     57  CA  SER A   2       2.225  17.776 -26.885  0.00  0.00    +0.178 C 
BRANCH  57  59
ATOM     58  C   ALA A   1       2.225  18.326 -29.245  0.00  0.00    +0.238 C 
ATOM     59  N   SER A   2       2.884  17.912 -28.174  0.00  0.00    -0.295 N 
ATOM     60  H   SER A   2       3.894  17.679 -28.256  0.00  0.00    +0.150 HD
ATOM     61  O   ALA A   1       1.048  18.590 -29.197  0.00  0.00    -0.274 OA
BRANCH  58  62
ATOM     62  CA  ALA A   1       2.998  18.426 -30.571  0.00  0.00    +0.145 C 
ATOM     63  CB  ALA A   1       3.257  19.868 -30.932  0.00  0.00    +0.028 C 
BRANCH  62  64
ATOM     64  N   ALA A   1       2.226  17.785 -31.640  0.00  0.00    -0.238 NA
ATOM     65  H   ALA A   1       1.468  18.326 -32.104  0.00  0.00    +0.142 HD
ENDBRANCH  62  64
ENDBRANCH  58  62
ENDBRANCH  57  59
BRANCH  57  66
ATOM     66  CB  SER A   2       2.165  16.323 -26.465  0.00  0.00    +0.166 C 
BRANCH  66  67
ATOM     67  OG  SER A   2       1.466  15.510 -27.384  0.00  0.00    -0.380 OA
ATOM     68  H   SER A   2       0.535  15.837 -27.471  0.00  0.00    +0.211 HD
ENDBRANCH  66  67
ENDBRANCH  57  66
ENDBRANCH  53  57
ENDBRANCH  52  54
ENDBRANCH  48  52
ENDBRANCH  47  49
BRANCH  47  69
ATOM     69  CB  ASP A   4       2.168  20.661 -19.263  0.00  0.00    +0.143 C 
BRANCH  69  70
ATOM     70  CG  ASP A   4       2.155  19.192 -18.854  0.00  0.00    +0.367 C 
ATOM     71  OD2 ASP A   4       2.873  18.809 -17.888  0.00  0.00    -0.246 OA
ATOM     72  OD1 ASP A   4       1.412  18.423 -19.478  0.00  0.00    -0.246 OA
ENDBRANCH  69  70
ENDBRANCH  47  69
ENDBRANCH  43  47
ENDBRANCH  42  45
BRANCH  42  73
ATOM     73  CB  GLN A   5       0.398  25.335 -22.194  0.00  0.00    +0.039 C 
BRANCH  73  74
ATOM     74  CG  GLN A   5       1.728  25.502 -21.488  0.00  0.00    +0.087 C 
BRANCH  74  75
ATOM     75  CD  GLN A   5       2.736  24.435 -21.862  0.00  0.00    +0.219 C 
ATOM     76  NE2 GLN A   5       3.397  23.875 -20.867  0.00  0.00    -0.329 N 
ATOM     77 HE21 GLN A   5       3.204  24.164 -19.887  0.00  0.00    +0.145 HD
ATOM     78 HE22 GLN A   5       4.111  23.144 -21.063  0.00  0.00    +0.145 HD
ATOM     79  OE1 GLN A   5       2.926  24.129 -23.040  0.00  0.00    -0.275 OA
ENDBRANCH  74  75
ENDBRANCH  73  74
ENDBRANCH  42  73
ENDBRANCH   1  42
TORSDOF 32
REMARK  Name = ../refined-set-2016/4yo8/4yo8_pocket.pdb
REMARK  219 active torsions:
REMARK  status: ('A' for Active; 'I' for Inactive)
REMARK    1  A    between atoms: _1  and  _3
REMARK    2  A    between atoms: _3  and  _4
REMARK    3  A    between atoms: _6  and  _8
REMARK    4  A    between atoms: _8  and  _9
REMARK    5  A    between atoms: _12  and  _14
REMARK    6  A    between atoms: _14  and  _15
REMARK    7  A    between atoms: _14  and  _17
REMARK    8  A    between atoms: _17  and  _18
REMARK    9  A    between atoms: _18  and  _19
REMARK   10  A    between atoms: _21  and  _23
REMARK   11  A    between atoms: _23  and  _24
REMARK   12  A    between atoms: _23  and  _26
REMARK   13  A    between atoms: _26  and  _27
REMARK   14  A    between atoms: _27  and  _28
REMARK   15  A    between atoms: _31  and  _33
REMARK   16  A    between atoms: _33  and  _34
REMARK   17  A    between atoms: _33  and  _36
REMARK   18  A    between atoms: _36  and  _37
REMARK   19  A    between atoms: _39  and  _41
REMARK   20  A    between atoms: _41  and  _42
REMARK   21  A    between atoms: _41  and  _44
REMARK   22  A    between atoms: _44  and  _45
REMARK   23  A    between atoms: _45  and  _46
REMARK   24  A    between atoms: _46  and  _47
REMARK   25  A    between atoms: _47  and  _48
REMARK   26  A    between atoms: _52  and  _54
REMARK   27  A    between atoms: _54  and  _55
REMARK   28  A    between atoms: _54  and  _57
REMARK   29  A    between atoms: _57  and  _58
REMARK   30  A    between atoms: _61  and  _63
REMARK   31  A    between atoms: _63  and  _64
REMARK   32  A    between atoms: _66  and  _68
REMARK   33  A    between atoms: _68  and  _69
REMARK   34  A    between atoms: _68  and  _71
REMARK   35  A    between atoms: _71  and  _72
REMARK   36  A    between atoms: _72  and  _73
REMARK   37  A    between atoms: _73  and  _74
REMARK   38  A    between atoms: _74  and  _75
REMARK   39  A    between atoms: _79  and  _81
REMARK   40  A    between atoms: _81  and  _82
REMARK   41  A    between atoms: _81  and  _84
REMARK   42  A    between atoms: _84  and  _85
REMARK   43  A    between atoms: _91  and  _93
REMARK   44  A    between atoms: _93  and  _94
REMARK   45  A    between atoms: _96  and  _98
REMARK   46  A    between atoms: _98  and  _99
REMARK   47  A    between atoms: _98  and  _101
REMARK   48  A    between atoms: _104  and  _106
REMARK   49  A    between atoms: _106  and  _107
REMARK   50  A    between atoms: _110  and  _112
REMARK   51  A    between atoms: _112  and  _113
REMARK   52  A    between atoms: _115  and  _117
REMARK   53  A    between atoms: _117  and  _118
REMARK   54  A    between atoms: _117  and  _120
REMARK   55  A    between atoms: _120  and  _121
REMARK   56  A    between atoms: _123  and  _125
REMARK   57  A    between atoms: _125  and  _126
REMARK   58  A    between atoms: _125  and  _128
REMARK   59  A    between atoms: _128  and  _129
REMARK   60  A    between atoms: _132  and  _134
REMARK   61  A    between atoms: _134  and  _135
REMARK   62  A    between atoms: _134  and  _137
REMARK   63  A    between atoms: _137  and  _138
REMARK   64  A    between atoms: _143  and  _145
REMARK   65  A    between atoms: _145  and  _146
REMARK   66  A    between atoms: _149  and  _151
REMARK   67  A    between atoms: _151  and  _152
REMARK   68  A    between atoms: _151  and  _154
REMARK   69  A    between atoms: _154  and  _155
REMARK   70  A    between atoms: _157  and  _159
REMARK   71  A    between atoms: _159  and  _160
REMARK   72  A    between atoms: _162  and  _164
REMARK   73  A    between atoms: _164  and  _165
REMARK   74  A    between atoms: _164  and  _167
REMARK   75  A    between atoms: _167  and  _168
REMARK   76  A    between atoms: _171  and  _173
REMARK   77  A    between atoms: _173  and  _174
REMARK   78  A    between atoms: _173  and  _176
REMARK   79  A    between atoms: _176  and  _177
REMARK   80  A    between atoms: _177  and  _178
REMARK   81  A    between atoms: _183  and  _185
REMARK   82  A    between atoms: _185  and  _186
REMARK   83  A    between atoms: _185  and  _188
REMARK   84  A    between atoms: _188  and  _189
REMARK   85  A    between atoms: _195  and  _197
REMARK   86  A    between atoms: _197  and  _198
REMARK   87  A    between atoms: _197  and  _200
REMARK   88  A    between atoms: _203  and  _205
REMARK   89  A    between atoms: _205  and  _206
REMARK   90  A    between atoms: _205  and  _208
REMARK   91  A    between atoms: _208  and  _209
REMARK   92  A    between atoms: _214  and  _216
REMARK   93  A    between atoms: _216  and  _217
REMARK   94  A    between atoms: _216  and  _219
REMARK   95  A    between atoms: _219  and  _220
REMARK   96  A    between atoms: _222  and  _224
REMARK   97  A    between atoms: _224  and  _225
REMARK   98  A    between atoms: _224  and  _227
REMARK   99  A    between atoms: _227  and  _228
REMARK  100  A    between atoms: _228  and  _229
REMARK  101  A    between atoms: _229  and  _230
REMARK  102  A    between atoms: _230  and  _231
REMARK  103  A    between atoms: _235  and  _237
REMARK  104  A    between atoms: _237  and  _238
REMARK  105  A    between atoms: _237  and  _240
REMARK  106  A    between atoms: _240  and  _241
REMARK  107  A    between atoms: _244  and  _246
REMARK  108  A    between atoms: _246  and  _247
REMARK  109  A    between atoms: _250  and  _252
REMARK  110  A    between atoms: _252  and  _253
REMARK  111  A    between atoms: _252  and  _255
REMARK  112  A    between atoms: _258  and  _260
REMARK  113  A    between atoms: _260  and  _261
REMARK  114  A    between atoms: _260  and  _263
REMARK  115  A    between atoms: _263  and  _264
REMARK  116  A    between atoms: _264  and  _265
REMARK  117  A    between atoms: _268  and  _270
REMARK  118  A    between atoms: _270  and  _271
REMARK  119  A    between atoms: _270  and  _273
REMARK  120  A    between atoms: _273  and  _274
REMARK  121  A    between atoms: _274  and  _275
REMARK  122  A    between atoms: _277  and  _279
REMARK  123  A    between atoms: _279  and  _280
REMARK  124  A    between atoms: _279  and  _282
REMARK  125  A    between atoms: _282  and  _283
REMARK  126  A    between atoms: _283  and  _284
REMARK  127  A    between atoms: _287  and  _289
REMARK  128  A    between atoms: _289  and  _290
REMARK  129  A    between atoms: _292  and  _294
REMARK  130  A    between atoms: _294  and  _295
REMARK  131  A    between atoms: _294  and  _297
REMARK  132  A    between atoms: _297  and  _298
REMARK  133  A    between atoms: _298  and  _299
REMARK  134  A    between atoms: _299  and  _300
REMARK  135  A    between atoms: _309  and  _311
REMARK  136  A    between atoms: _311  and  _312
REMARK  137  A    between atoms: _311  and  _314
REMARK  138  A    between atoms: _314  and  _315
REMARK  139  A    between atoms: _317  and  _319
REMARK  140  A    between atoms: _319  and  _320
REMARK  141  A    between atoms: _319  and  _322
REMARK  142  A    between atoms: _322  and  _323
REMARK  143  A    between atoms: _326  and  _328
REMARK  144  A    between atoms: _328  and  _329
REMARK  145  A    between atoms: _328  and  _331
REMARK  146  A    between atoms: _331  and  _332
REMARK  147  A    between atoms: _334  and  _336
REMARK  148  A    between atoms: _336  and  _337
REMARK  149  A    between atoms: _336  and  _339
REMARK  150  A    between atoms: _339  and  _340
REMARK  151  A    between atoms: _343  and  _345
REMARK  152  A    between atoms: _345  and  _346
REMARK  153  A    between atoms: _345  and  _348
REMARK  154  A    between atoms: _348  and  _349
REMARK  155  A    between atoms: _354  and  _356
REMARK  156  A    between atoms: _356  and  _357
REMARK  157  A    between atoms: _360  and  _362
REMARK  158  A    between atoms: _362  and  _363
REMARK  159  A    between atoms: _362  and  _365
REMARK  160  A    between atoms: _365  and  _366
REMARK  161  A    between atoms: _369  and  _371
REMARK  162  A    between atoms: _371  and  _372
REMARK  163  A    between atoms: _375  and  _377
REMARK  164  A    between atoms: _377  and  _378
REMARK  165  A    between atoms: _380  and  _382
REMARK  166  A    between atoms: _382  and  _383
REMARK  167  A    between atoms: _382  and  _385
REMARK  168  A    between atoms: _385  and  _386
REMARK  169  A    between atoms: _388  and  _390
REMARK  170  A    between atoms: _390  and  _391
REMARK  171  A    between atoms: _390  and  _393
REMARK  172  A    between atoms: _393  and  _394
REMARK  173  A    between atoms: _400  and  _402
REMARK  174  A    between atoms: _402  and  _403
REMARK  175  A    between atoms: _402  and  _405
REMARK  176  A    between atoms: _405  and  _406
REMARK  177  A    between atoms: _409  and  _411
REMARK  178  A    between atoms: _411  and  _412
REMARK  179  A    between atoms: _411  and  _414
REMARK  180  A    between atoms: _414  and  _415
REMARK  181  A    between atoms: _418  and  _420
REMARK  182  A    between atoms: _420  and  _421
REMARK  183  A    between atoms: _420  and  _423
REMARK  184  A    between atoms: _423  and  _424
REMARK  185  A    between atoms: _426  and  _428
REMARK  186  A    between atoms: _428  and  _429
REMARK  187  A    between atoms: _428  and  _431
REMARK  188  A    between atoms: _431  and  _432
REMARK  189  A    between atoms: _435  and  _437
REMARK  190  A    between atoms: _437  and  _438
REMARK  191  A    between atoms: _437  and  _440
REMARK  192  A    between atoms: _440  and  _441
REMARK  193  A    between atoms: _444  and  _446
REMARK  194  A    between atoms: _446  and  _447
REMARK  195  A    between atoms: _446  and  _449
REMARK  196  A    between atoms: _449  and  _450
REMARK  197  A    between atoms: _452  and  _454
REMARK  198  A    between atoms: _454  and  _455
REMARK  199  A    between atoms: _458  and  _460
REMARK  200  A    between atoms: _460  and  _461
REMARK  201  A    between atoms: _460  and  _463
REMARK  202  A    between atoms: _463  and  _464
REMARK  203  A    between atoms: _470  and  _472
REMARK  204  A    between atoms: _472  and  _473
REMARK  205  A    between atoms: _472  and  _475
REMARK  206  A    between atoms: _475  and  _476
REMARK  207  A    between atoms: _479  and  _481
REMARK  208  A    between atoms: _481  and  _482
REMARK  209  A    between atoms: _481  and  _484
REMARK  210  A    between atoms: _484  and  _485
REMARK  211  A    between atoms: _490  and  _492
REMARK  212  A    between atoms: _492  and  _493
REMARK  213  A    between atoms: _492  and  _495
REMARK  214  A    between atoms: _495  and  _496
REMARK  215  A    between atoms: _502  and  _504
REMARK  216  A    between atoms: _504  and  _505
REMARK  217  A    between atoms: _504  and  _507
REMARK  218  A    between atoms: _507  and  _508
REMARK  219  A    between atoms: _512  and  _513
REMARK                            x       y       z     vdW  Elec       q    Type
REMARK                         _______ _______ _______ _____ _____    ______ ____
ROOT
ATOM      1  CG  LYS A   1      -1.802  28.035 -33.379  0.00  0.00    -0.000 C 
ENDROOT
BRANCH   1   2
ATOM      2  CB  LYS A   1      -0.521  28.707 -33.770  0.00  0.00    +0.025 C 
BRANCH   2   3
ATOM      3  CA  LYS A   1       0.720  28.131 -33.096  0.00  0.00    +0.133 C 
BRANCH   3   4
ATOM      4  N   LYS A   1       0.991  28.825 -31.831  0.00  0.00    -0.239 NA
ATOM      5  H   LYS A   1       0.255  29.429 -31.413  0.00  0.00    +0.142 HD
ENDBRANCH   3   4
BRANCH   3   6
ATOM      6  C   LYS A   1       1.881  28.217 -34.083  0.00  0.00    +0.224 C 
ATOM      7  O   LYS A   1       2.392  27.195 -34.564  0.00  0.00    -0.287 OA
ENDBRANCH   3   6
ENDBRANCH   2   3
ENDBRANCH   1   2
BRANCH   1   8
ATOM      8  CD  LYS A   1      -2.961  28.543 -34.217  0.00  0.00    -0.024 C 
BRANCH   8   9
ATOM      9  CE  LYS A   1      -2.987  27.910 -35.597  0.00  0.00    -0.086 C 
BRANCH   9  10
ATOM     10  NZ  LYS A   1      -4.370  27.844 -36.126  0.00  0.00    +0.380 N 
ATOM     11  HZ1 LYS A   1      -4.958  27.273 -35.486  0.00  0.00    -0.089 HD
ATOM     12  HZ2 LYS A   1      -4.761  28.806 -36.192  0.00  0.00    -0.089 HD
ATOM     13  HZ3 LYS A   1      -4.358  27.407 -37.070  0.00  0.00    -0.089 HD
ENDBRANCH   9  10
ENDBRANCH   8   9
ENDBRANCH   1   8
TORSDOF 7
REMARK  Name = ../refined-set-2016/4yo8/4yo8_pocket.pdb
REMARK  219 active torsions:
REMARK  status: ('A' for Active; 'I' for Inactive)
REMARK    1  A    between atoms: _1  and  _3
REMARK    2  A    between atoms: _3  and  _4
REMARK    3  A    between atoms: _6  and  _8
REMARK    4  A    between atoms: _8  and  _9
REMARK    5  A    between atoms: _12  and  _14
REMARK    6  A    between atoms: _14  and  _15
REMARK    7  A    between atoms: _14  and  _17
REMARK    8  A    between atoms: _17  and  _18
REMARK    9  A    between atoms: _18  and  _19
REMARK   10  A    between atoms: _21  and  _23
REMARK   11  A    between atoms: _23  and  _24
REMARK   12  A    between atoms: _23  and  _26
REMARK   13  A    between atoms: _26  and  _27
REMARK   14  A    between atoms: _27  and  _28
REMARK   15  A    between atoms: _31  and  _33
REMARK   16  A    between atoms: _33  and  _34
REMARK   17  A    between atoms: _33  and  _36
REMARK   18  A    between atoms: _36  and  _37
REMARK   19  A    between atoms: _39  and  _41
REMARK   20  A    between atoms: _41  and  _42
REMARK   21  A    between atoms: _41  and  _44
REMARK   22  A    between atoms: _44  and  _45
REMARK   23  A    between atoms: _45  and  _46
REMARK   24  A    between atoms: _46  and  _47
REMARK   25  A    between atoms: _47  and  _48
REMARK   26  A    between atoms: _52  and  _54
REMARK   27  A    between atoms: _54  and  _55
REMARK   28  A    between atoms: _54  and  _57
REMARK   29  A    between atoms: _57  and  _58
REMARK   30  A    between atoms: _61  and  _63
REMARK   31  A    between atoms: _63  and  _64
REMARK   32  A    between atoms: _66  and  _68
REMARK   33  A    between atoms: _68  and  _69
REMARK   34  A    between atoms: _68  and  _71
REMARK   35  A    between atoms: _71  and  _72
REMARK   36  A    between atoms: _72  and  _73
REMARK   37  A    between atoms: _73  and  _74
REMARK   38  A    between atoms: _74  and  _75
REMARK   39  A    between atoms: _79  and  _81
REMARK   40  A    between atoms: _81  and  _82
REMARK   41  A    between atoms: _81  and  _84
REMARK   42  A    between atoms: _84  and  _85
REMARK   43  A    between atoms: _91  and  _93
REMARK   44  A    between atoms: _93  and  _94
REMARK   45  A    between atoms: _96  and  _98
REMARK   46  A    between atoms: _98  and  _99
REMARK   47  A    between atoms: _98  and  _101
REMARK   48  A    between atoms: _104  and  _106
REMARK   49  A    between atoms: _106  and  _107
REMARK   50  A    between atoms: _110  and  _112
REMARK   51  A    between atoms: _112  and  _113
REMARK   52  A    between atoms: _115  and  _117
REMARK   53  A    between atoms: _117  and  _118
REMARK   54  A    between atoms: _117  and  _120
REMARK   55  A    between atoms: _120  and  _121
REMARK   56  A    between atoms: _123  and  _125
REMARK   57  A    between atoms: _125  and  _126
REMARK   58  A    between atoms: _125  and  _128
REMARK   59  A    between atoms: _128  and  _129
REMARK   60  A    between atoms: _132  and  _134
REMARK   61  A    between atoms: _134  and  _135
REMARK   62  A    between atoms: _134  and  _137
REMARK   63  A    between atoms: _137  and  _138
REMARK   64  A    between atoms: _143  and  _145
REMARK   65  A    between atoms: _145  and  _146
REMARK   66  A    between atoms: _149  and  _151
REMARK   67  A    between atoms: _151  and  _152
REMARK   68  A    between atoms: _151  and  _154
REMARK   69  A    between atoms: _154  and  _155
REMARK   70  A    between atoms: _157  and  _159
REMARK   71  A    between atoms: _159  and  _160
REMARK   72  A    between atoms: _162  and  _164
REMARK   73  A    between atoms: _164  and  _165
REMARK   74  A    between atoms: _164  and  _167
REMARK   75  A    between atoms: _167  and  _168
REMARK   76  A    between atoms: _171  and  _173
REMARK   77  A    between atoms: _173  and  _174
REMARK   78  A    between atoms: _173  and  _176
REMARK   79  A    between atoms: _176  and  _177
REMARK   80  A    between atoms: _177  and  _178
REMARK   81  A    between atoms: _183  and  _185
REMARK   82  A    between atoms: _185  and  _186
REMARK   83  A    between atoms: _185  and  _188
REMARK   84  A    between atoms: _188  and  _189
REMARK   85  A    between atoms: _195  and  _197
REMARK   86  A    between atoms: _197  and  _198
REMARK   87  A    between atoms: _197  and  _200
REMARK   88  A    between atoms: _203  and  _205
REMARK   89  A    between atoms: _205  and  _206
REMARK   90  A    between atoms: _205  and  _208
REMARK   91  A    between atoms: _208  and  _209
REMARK   92  A    between atoms: _214  and  _216
REMARK   93  A    between atoms: _216  and  _217
REMARK   94  A    between atoms: _216  and  _219
REMARK   95  A    between atoms: _219  and  _220
REMARK   96  A    between atoms: _222  and  _224
REMARK   97  A    between atoms: _224  and  _225
REMARK   98  A    between atoms: _224  and  _227
REMARK   99  A    between atoms: _227  and  _228
REMARK  100  A    between atoms: _228  and  _229
REMARK  101  A    between atoms: _229  and  _230
REMARK  102  A    between atoms: _230  and  _231
REMARK  103  A    between atoms: _235  and  _237
REMARK  104  A    between atoms: _237  and  _238
REMARK  105  A    between atoms: _237  and  _240
REMARK  106  A    between atoms: _240  and  _241
REMARK  107  A    between atoms: _244  and  _246
REMARK  108  A    between atoms: _246  and  _247
REMARK  109  A    between atoms: _250  and  _252
REMARK  110  A    between atoms: _252  and  _253
REMARK  111  A    between atoms: _252  and  _255
REMARK  112  A    between atoms: _258  and  _260
REMARK  113  A    between atoms: _260  and  _261
REMARK  114  A    between atoms: _260  and  _263
REMARK  115  A    between atoms: _263  and  _264
REMARK  116  A    between atoms: _264  and  _265
REMARK  117  A    between atoms: _268  and  _270
REMARK  118  A    between atoms: _270  and  _271
REMARK  119  A    between atoms: _270  and  _273
REMARK  120  A    between atoms: _273  and  _274
REMARK  121  A    between atoms: _274  and  _275
REMARK  122  A    between atoms: _277  and  _279
REMARK  123  A    between atoms: _279  and  _280
REMARK  124  A    between atoms: _279  and  _282
REMARK  125  A    between atoms: _282  and  _283
REMARK  126  A    between atoms: _283  and  _284
REMARK  127  A    between atoms: _287  and  _289
REMARK  128  A    between atoms: _289  and  _290
REMARK  129  A    between atoms: _292  and  _294
REMARK  130  A    between atoms: _294  and  _295
REMARK  131  A    between atoms: _294  and  _297
REMARK  132  A    between atoms: _297  and  _298
REMARK  133  A    between atoms: _298  and  _299
REMARK  134  A    between atoms: _299  and  _300
REMARK  135  A    between atoms: _309  and  _311
REMARK  136  A    between atoms: _311  and  _312
REMARK  137  A    between atoms: _311  and  _314
REMARK  138  A    between atoms: _314  and  _315
REMARK  139  A    between atoms: _317  and  _319
REMARK  140  A    between atoms: _319  and  _320
REMARK  141  A    between atoms: _319  and  _322
REMARK  142  A    between atoms: _322  and  _323
REMARK  143  A    between atoms: _326  and  _328
REMARK  144  A    between atoms: _328  and  _329
REMARK  145  A    between atoms: _328  and  _331
REMARK  146  A    between atoms: _331  and  _332
REMARK  147  A    between atoms: _334  and  _336
REMARK  148  A    between atoms: _336  and  _337
REMARK  149  A    between atoms: _336  and  _339
REMARK  150  A    between atoms: _339  and  _340
REMARK  151  A    between atoms: _343  and  _345
REMARK  152  A    between atoms: _345  and  _346
REMARK  153  A    between atoms: _345  and  _348
REMARK  154  A    between atoms: _348  and  _349
REMARK  155  A    between atoms: _354  and  _356
REMARK  156  A    between atoms: _356  and  _357
REMARK  157  A    between atoms: _360  and  _362
REMARK  158  A    between atoms: _362  and  _363
REMARK  159  A    between atoms: _362  and  _365
REMARK  160  A    between atoms: _365  and  _366
REMARK  161  A    between atoms: _369  and  _371
REMARK  162  A    between atoms: _371  and  _372
REMARK  163  A    between atoms: _375  and  _377
REMARK  164  A    between atoms: _377  and  _378
REMARK  165  A    between atoms: _380  and  _382
REMARK  166  A    between atoms: _382  and  _383
REMARK  167  A    between atoms: _382  and  _385
REMARK  168  A    between atoms: _385  and  _386
REMARK  169  A    between atoms: _388  and  _390
REMARK  170  A    between atoms: _390  and  _391
REMARK  171  A    between atoms: _390  and  _393
REMARK  172  A    between atoms: _393  and  _394
REMARK  173  A    between atoms: _400  and  _402
REMARK  174  A    between atoms: _402  and  _403
REMARK  175  A    between atoms: _402  and  _405
REMARK  176  A    between atoms: _405  and  _406
REMARK  177  A    between atoms: _409  and  _411
REMARK  178  A    between atoms: _411  and  _412
REMARK  179  A    between atoms: _411  and  _414
REMARK  180  A    between atoms: _414  and  _415
REMARK  181  A    between atoms: _418  and  _420
REMARK  182  A    between atoms: _420  and  _421
REMARK  183  A    between atoms: _420  and  _423
REMARK  184  A    between atoms: _423  and  _424
REMARK  185  A    between atoms: _426  and  _428
REMARK  186  A    between atoms: _428  and  _429
REMARK  187  A    between atoms: _428  and  _431
REMARK  188  A    between atoms: _431  and  _432
REMARK  189  A    between atoms: _435  and  _437
REMARK  190  A    between atoms: _437  and  _438
REMARK  191  A    between atoms: _437  and  _440
REMARK  192  A    between atoms: _440  and  _441
REMARK  193  A    between atoms: _444  and  _446
REMARK  194  A    between atoms: _446  and  _447
REMARK  195  A    between atoms: _446  and  _449
REMARK  196  A    between atoms: _449  and  _450
REMARK  197  A    between atoms: _452  and  _454
REMARK  198  A    between atoms: _454  and  _455
REMARK  199  A    between atoms: _458  and  _460
REMARK  200  A    between atoms: _460  and  _461
REMARK  201  A    between atoms: _460  and  _463
REMARK  202  A    between atoms: _463  and  _464
REMARK  203  A    between atoms: _470  and  _472
REMARK  204  A    between atoms: _472  and  _473
REMARK  205  A    between atoms: _472  and  _475
REMARK  206  A    between atoms: _475  and  _476
REMARK  207  A    between atoms: _479  and  _481
REMARK  208  A    between atoms: _481  and  _482
REMARK  209  A    between atoms: _481  and  _484
REMARK  210  A    between atoms: _484  and  _485
REMARK  211  A    between atoms: _490  and  _492
REMARK  212  A    between atoms: _492  and  _493
REMARK  213  A    between atoms: _492  and  _495
REMARK  214  A    between atoms: _495  and  _496
REMARK  215  A    between atoms: _502  and  _504
REMARK  216  A    between atoms: _504  and  _505
REMARK  217  A    between atoms: _504  and  _507
REMARK  218  A    between atoms: _507  and  _508
REMARK  219  A    between atoms: _512  and  _513
REMARK                            x       y       z     vdW  Elec       q    Type
REMARK                         _______ _______ _______ _____ _____    ______ ____
ROOT
ATOM      1  CA  LEU A   1       4.802  24.893 -33.207  0.00  0.00    +0.133 C 
ENDROOT
BRANCH   1   2
ATOM      2  N   LEU A   1       4.962  26.338 -33.040  0.00  0.00    -0.239 NA
ATOM      3  H   LEU A   1       4.143  26.906 -32.742  0.00  0.00    +0.142 HD
ENDBRANCH   1   2
BRANCH   1   4
ATOM      4  C   LEU A   1       5.010  24.441 -34.629  0.00  0.00    +0.224 C 
ATOM      5  O   LEU A   1       5.680  23.432 -34.874  0.00  0.00    -0.287 OA
ENDBRANCH   1   4
BRANCH   1   6
ATOM      6  CB  LEU A   1       3.423  24.456 -32.709  0.00  0.00    +0.025 C 
BRANCH   6   7
ATOM      7  CG  LEU A   1       3.197  24.651 -31.205  0.00  0.00    +0.002 C 
ATOM      8  CD2 LEU A   1       4.247  23.891 -30.422  0.00  0.00    +0.000 C 
ATOM      9  CD1 LEU A   1       1.800  24.189 -30.807  0.00  0.00    +0.000 C 
ENDBRANCH   6   7
ENDBRANCH   1   6
TORSDOF 4
REMARK  Name = ../refined-set-2016/4yo8/4yo8_pocket.pdb
REMARK  219 active torsions:
REMARK  status: ('A' for Active; 'I' for Inactive)
REMARK    1  A    between atoms: _1  and  _3
REMARK    2  A    between atoms: _3  and  _4
REMARK    3  A    between atoms: _6  and  _8
REMARK    4  A    between atoms: _8  and  _9
REMARK    5  A    between atoms: _12  and  _14
REMARK    6  A    between atoms: _14  and  _15
REMARK    7  A    between atoms: _14  and  _17
REMARK    8  A    between atoms: _17  and  _18
REMARK    9  A    between atoms: _18  and  _19
REMARK   10  A    between atoms: _21  and  _23
REMARK   11  A    between atoms: _23  and  _24
REMARK   12  A    between atoms: _23  and  _26
REMARK   13  A    between atoms: _26  and  _27
REMARK   14  A    between atoms: _27  and  _28
REMARK   15  A    between atoms: _31  and  _33
REMARK   16  A    between atoms: _33  and  _34
REMARK   17  A    between atoms: _33  and  _36
REMARK   18  A    between atoms: _36  and  _37
REMARK   19  A    between atoms: _39  and  _41
REMARK   20  A    between atoms: _41  and  _42
REMARK   21  A    between atoms: _41  and  _44
REMARK   22  A    between atoms: _44  and  _45
REMARK   23  A    between atoms: _45  and  _46
REMARK   24  A    between atoms: _46  and  _47
REMARK   25  A    between atoms: _47  and  _48
REMARK   26  A    between atoms: _52  and  _54
REMARK   27  A    between atoms: _54  and  _55
REMARK   28  A    between atoms: _54  and  _57
REMARK   29  A    between atoms: _57  and  _58
REMARK   30  A    between atoms: _61  and  _63
REMARK   31  A    between atoms: _63  and  _64
REMARK   32  A    between atoms: _66  and  _68
REMARK   33  A    between atoms: _68  and  _69
REMARK   34  A    between atoms: _68  and  _71
REMARK   35  A    between atoms: _71  and  _72
REMARK   36  A    between atoms: _72  and  _73
REMARK   37  A    between atoms: _73  and  _74
REMARK   38  A    between atoms: _74  and  _75
REMARK   39  A    between atoms: _79  and  _81
REMARK   40  A    between atoms: _81  and  _82
REMARK   41  A    between atoms: _81  and  _84
REMARK   42  A    between atoms: _84  and  _85
REMARK   43  A    between atoms: _91  and  _93
REMARK   44  A    between atoms: _93  and  _94
REMARK   45  A    between atoms: _96  and  _98
REMARK   46  A    between atoms: _98  and  _99
REMARK   47  A    between atoms: _98  and  _101
REMARK   48  A    between atoms: _104  and  _106
REMARK   49  A    between atoms: _106  and  _107
REMARK   50  A    between atoms: _110  and  _112
REMARK   51  A    between atoms: _112  and  _113
REMARK   52  A    between atoms: _115  and  _117
REMARK   53  A    between atoms: _117  and  _118
REMARK   54  A    between atoms: _117  and  _120
REMARK   55  A    between atoms: _120  and  _121
REMARK   56  A    between atoms: _123  and  _125
REMARK   57  A    between atoms: _125  and  _126
REMARK   58  A    between atoms: _125  and  _128
REMARK   59  A    between atoms: _128  and  _129
REMARK   60  A    between atoms: _132  and  _134
REMARK   61  A    between atoms: _134  and  _135
REMARK   62  A    between atoms: _134  and  _137
REMARK   63  A    between atoms: _137  and  _138
REMARK   64  A    between atoms: _143  and  _145
REMARK   65  A    between atoms: _145  and  _146
REMARK   66  A    between atoms: _149  and  _151
REMARK   67  A    between atoms: _151  and  _152
REMARK   68  A    between atoms: _151  and  _154
REMARK   69  A    between atoms: _154  and  _155
REMARK   70  A    between atoms: _157  and  _159
REMARK   71  A    between atoms: _159  and  _160
REMARK   72  A    between atoms: _162  and  _164
REMARK   73  A    between atoms: _164  and  _165
REMARK   74  A    between atoms: _164  and  _167
REMARK   75  A    between atoms: _167  and  _168
REMARK   76  A    between atoms: _171  and  _173
REMARK   77  A    between atoms: _173  and  _174
REMARK   78  A    between atoms: _173  and  _176
REMARK   79  A    between atoms: _176  and  _177
REMARK   80  A    between atoms: _177  and  _178
REMARK   81  A    between atoms: _183  and  _185
REMARK   82  A    between atoms: _185  and  _186
REMARK   83  A    between atoms: _185  and  _188
REMARK   84  A    between atoms: _188  and  _189
REMARK   85  A    between atoms: _195  and  _197
REMARK   86  A    between atoms: _197  and  _198
REMARK   87  A    between atoms: _197  and  _200
REMARK   88  A    between atoms: _203  and  _205
REMARK   89  A    between atoms: _205  and  _206
REMARK   90  A    between atoms: _205  and  _208
REMARK   91  A    between atoms: _208  and  _209
REMARK   92  A    between atoms: _214  and  _216
REMARK   93  A    between atoms: _216  and  _217
REMARK   94  A    between atoms: _216  and  _219
REMARK   95  A    between atoms: _219  and  _220
REMARK   96  A    between atoms: _222  and  _224
REMARK   97  A    between atoms: _224  and  _225
REMARK   98  A    between atoms: _224  and  _227
REMARK   99  A    between atoms: _227  and  _228
REMARK  100  A    between atoms: _228  and  _229
REMARK  101  A    between atoms: _229  and  _230
REMARK  102  A    between atoms: _230  and  _231
REMARK  103  A    between atoms: _235  and  _237
REMARK  104  A    between atoms: _237  and  _238
REMARK  105  A    between atoms: _237  and  _240
REMARK  106  A    between atoms: _240  and  _241
REMARK  107  A    between atoms: _244  and  _246
REMARK  108  A    between atoms: _246  and  _247
REMARK  109  A    between atoms: _250  and  _252
REMARK  110  A    between atoms: _252  and  _253
REMARK  111  A    between atoms: _252  and  _255
REMARK  112  A    between atoms: _258  and  _260
REMARK  113  A    between atoms: _260  and  _261
REMARK  114  A    between atoms: _260  and  _263
REMARK  115  A    between atoms: _263  and  _264
REMARK  116  A    between atoms: _264  and  _265
REMARK  117  A    between atoms: _268  and  _270
REMARK  118  A    between atoms: _270  and  _271
REMARK  119  A    between atoms: _270  and  _273
REMARK  120  A    between atoms: _273  and  _274
REMARK  121  A    between atoms: _274  and  _275
REMARK  122  A    between atoms: _277  and  _279
REMARK  123  A    between atoms: _279  and  _280
REMARK  124  A    between atoms: _279  and  _282
REMARK  125  A    between atoms: _282  and  _283
REMARK  126  A    between atoms: _283  and  _284
REMARK  127  A    between atoms: _287  and  _289
REMARK  128  A    between atoms: _289  and  _290
REMARK  129  A    between atoms: _292  and  _294
REMARK  130  A    between atoms: _294  and  _295
REMARK  131  A    between atoms: _294  and  _297
REMARK  132  A    between atoms: _297  and  _298
REMARK  133  A    between atoms: _298  and  _299
REMARK  134  A    between atoms: _299  and  _300
REMARK  135  A    between atoms: _309  and  _311
REMARK  136  A    between atoms: _311  and  _312
REMARK  137  A    between atoms: _311  and  _314
REMARK  138  A    between atoms: _314  and  _315
REMARK  139  A    between atoms: _317  and  _319
REMARK  140  A    between atoms: _319  and  _320
REMARK  141  A    between atoms: _319  and  _322
REMARK  142  A    between atoms: _322  and  _323
REMARK  143  A    between atoms: _326  and  _328
REMARK  144  A    between atoms: _328  and  _329
REMARK  145  A    between atoms: _328  and  _331
REMARK  146  A    between atoms: _331  and  _332
REMARK  147  A    between atoms: _334  and  _336
REMARK  148  A    between atoms: _336  and  _337
REMARK  149  A    between atoms: _336  and  _339
REMARK  150  A    between atoms: _339  and  _340
REMARK  151  A    between atoms: _343  and  _345
REMARK  152  A    between atoms: _345  and  _346
REMARK  153  A    between atoms: _345  and  _348
REMARK  154  A    between atoms: _348  and  _349
REMARK  155  A    between atoms: _354  and  _356
REMARK  156  A    between atoms: _356  and  _357
REMARK  157  A    between atoms: _360  and  _362
REMARK  158  A    between atoms: _362  and  _363
REMARK  159  A    between atoms: _362  and  _365
REMARK  160  A    between atoms: _365  and  _366
REMARK  161  A    between atoms: _369  and  _371
REMARK  162  A    between atoms: _371  and  _372
REMARK  163  A    between atoms: _375  and  _377
REMARK  164  A    between atoms: _377  and  _378
REMARK  165  A    between atoms: _380  and  _382
REMARK  166  A    between atoms: _382  and  _383
REMARK  167  A    between atoms: _382  and  _385
REMARK  168  A    between atoms: _385  and  _386
REMARK  169  A    between atoms: _388  and  _390
REMARK  170  A    between atoms: _390  and  _391
REMARK  171  A    between atoms: _390  and  _393
REMARK  172  A    between atoms: _393  and  _394
REMARK  173  A    between atoms: _400  and  _402
REMARK  174  A    between atoms: _402  and  _403
REMARK  175  A    between atoms: _402  and  _405
REMARK  176  A    between atoms: _405  and  _406
REMARK  177  A    between atoms: _409  and  _411
REMARK  178  A    between atoms: _411  and  _412
REMARK  179  A    between atoms: _411  and  _414
REMARK  180  A    between atoms: _414  and  _415
REMARK  181  A    between atoms: _418  and  _420
REMARK  182  A    between atoms: _420  and  _421
REMARK  183  A    between atoms: _420  and  _423
REMARK  184  A    between atoms: _423  and  _424
REMARK  185  A    between atoms: _426  and  _428
REMARK  186  A    between atoms: _428  and  _429
REMARK  187  A    between atoms: _428  and  _431
REMARK  188  A    between atoms: _431  and  _432
REMARK  189  A    between atoms: _435  and  _437
REMARK  190  A    between atoms: _437  and  _438
REMARK  191  A    between atoms: _437  and  _440
REMARK  192  A    between atoms: _440  and  _441
REMARK  193  A    between atoms: _444  and  _446
REMARK  194  A    between atoms: _446  and  _447
REMARK  195  A    between atoms: _446  and  _449
REMARK  196  A    between atoms: _449  and  _450
REMARK  197  A    between atoms: _452  and  _454
REMARK  198  A    between atoms: _454  and  _455
REMARK  199  A    between atoms: _458  and  _460
REMARK  200  A    between atoms: _460  and  _461
REMARK  201  A    between atoms: _460  and  _463
REMARK  202  A    between atoms: _463  and  _464
REMARK  203  A    between atoms: _470  and  _472
REMARK  204  A    between atoms: _472  and  _473
REMARK  205  A    between atoms: _472  and  _475
REMARK  206  A    between atoms: _475  and  _476
REMARK  207  A    between atoms: _479  and  _481
REMARK  208  A    between atoms: _481  and  _482
REMARK  209  A    between atoms: _481  and  _484
REMARK  210  A    between atoms: _484  and  _485
REMARK  211  A    between atoms: _490  and  _492
REMARK  212  A    between atoms: _492  and  _493
REMARK  213  A    between atoms: _492  and  _495
REMARK  214  A    between atoms: _495  and  _496
REMARK  215  A    between atoms: _502  and  _504
REMARK  216  A    between atoms: _504  and  _505
REMARK  217  A    between atoms: _504  and  _507
REMARK  218  A    between atoms: _507  and  _508
REMARK  219  A    between atoms: _512  and  _513
REMARK                            x       y       z     vdW  Elec       q    Type
REMARK                         _______ _______ _______ _____ _____    ______ ____
ROOT
ATOM      1  C   GLU A   3      -1.718  18.275 -26.293  0.00  0.00    +0.241 C 
ATOM      2  N   MET A   4      -2.047  17.476 -25.284  0.00  0.00    -0.297 N 
ATOM      3  H   MET A   4      -2.861  16.835 -25.372  0.00  0.00    +0.150 HD
ATOM      4  O   GLU A   3      -0.688  18.976 -26.276  0.00  0.00    -0.273 OA
ENDROOT
BRANCH   2   5
ATOM      5  CA  MET A   4      -1.268  17.497 -24.055  0.00  0.00    +0.149 C 
BRANCH   5   6
ATOM      6  C   MET A   4      -0.811  16.131 -23.561  0.00  0.00    +0.241 C 
ATOM      7  O   MET A   4      -0.153  16.059 -22.504  0.00  0.00    -0.273 OA
ATOM      8  N   GLU A   5      -1.109  15.065 -24.299  0.00  0.00    -0.297 N 
ATOM      9  H   GLU A   5      -1.595  15.185 -25.210  0.00  0.00    +0.150 HD
BRANCH   8  10
ATOM     10  CA  GLU A   5      -0.753  13.715 -23.830  0.00  0.00    +0.149 C 
BRANCH  10  11
ATOM     11  C   GLU A   5      -0.070  12.805 -24.832  0.00  0.00    +0.241 C 
ATOM     12  O   GLU A   5       0.577  11.822 -24.434  0.00  0.00    -0.273 OA
ATOM     13  N   GLY A   6      -0.200  13.078 -26.126  0.00  0.00    -0.296 N 
ATOM     14  H   GLY A   6      -0.543  14.012 -26.430  0.00  0.00    +0.150 HD
BRANCH  13  15
ATOM     15  CA  GLY A   6       0.137  12.071 -27.114  0.00  0.00    +0.163 C 
BRANCH  15  16
ATOM     16  C   GLY A   6       1.592  11.672 -27.050  0.00  0.00    +0.229 C 
ATOM     17  O   GLY A   6       1.925  10.479 -27.119  0.00  0.00    -0.286 OA
ENDBRANCH  15  16
ENDBRANCH  13  15
ENDBRANCH  10  11
BRANCH  10  18
ATOM     18  CB  GLU A   5      -1.987  12.994 -23.309  0.00  0.00    +0.041 C 
BRANCH  18  19
ATOM     19  CG  GLU A   5      -2.699  13.665 -22.135  0.00  0.00    +0.116 C 
BRANCH  19  20
ATOM     20  CD  GLU A   5      -3.688  14.753 -22.547  0.00  0.00    +0.365 C 
ATOM     21  OE2 GLU A   5      -4.053  15.617 -21.697  0.00  0.00    -0.246 OA
ATOM     22  OE1 GLU A   5      -4.105  14.744 -23.714  0.00  0.00    -0.246 OA
ENDBRANCH  19  20
ENDBRANCH  18  19
ENDBRANCH  10  18
ENDBRANCH   8  10
ENDBRANCH   5   6
BRANCH   5  23
ATOM     23  CB  MET A   4      -2.043  18.244 -22.932  0.00  0.00    +0.041 C 
BRANCH  23  24
ATOM     24  CG  MET A   4      -2.586  19.600 -23.358  0.00  0.00    +0.060 C 
BRANCH  24  25
ATOM     25  SD  MET A   4      -3.498  20.555 -22.109  0.00  0.00    -0.139 S 
ATOM     26  CE  MET A   4      -2.305  20.615 -20.785  0.00  0.00    +0.069 C 
ENDBRANCH  24  25
ENDBRANCH  23  24
ENDBRANCH   5  23
ENDBRANCH   2   5
BRANCH   1  27
ATOM     27  CA  GLU A   3      -2.684  18.404 -27.478  0.00  0.00    +0.149 C 
BRANCH  27  29
ATOM     28  C   VAL A   2      -2.504  19.509 -29.620  0.00  0.00    +0.241 C 
ATOM     29  N   GLU A   3      -1.928  18.886 -28.615  0.00  0.00    -0.297 N 
ATOM     30  H   GLU A   3      -0.899  18.735 -28.638  0.00  0.00    +0.150 HD
ATOM     31  O   VAL A   2      -3.738  19.621 -29.733  0.00  0.00    -0.273 OA
BRANCH  28  32
ATOM     32  CA  VAL A   2      -1.533  20.077 -30.657  0.00  0.00    +0.148 C 
BRANCH  32  34
ATOM     33  C   ALA A   1      -1.224  19.441 -32.997  0.00  0.00    +0.238 C 
ATOM     34  N   VAL A   2      -2.012  19.856 -32.014  0.00  0.00    -0.297 N 
ATOM     35  H   VAL A   2      -3.016  20.031 -32.222  0.00  0.00    +0.150 HD
ATOM     36  O   ALA A   1      -0.090  19.013 -32.834  0.00  0.00    -0.274 OA
BRANCH  33  37
ATOM     37  CA  ALA A   1      -1.851  19.426 -34.362  0.00  0.00    +0.145 C 
ATOM     38  CB  ALA A   1      -2.796  18.238 -34.438  0.00  0.00    +0.028 C 
BRANCH  37  39
ATOM     39  N   ALA A   1      -0.826  19.353 -35.417  0.00  0.00    -0.238 NA
ATOM     40  H   ALA A   1       0.128  19.021 -35.170  0.00  0.00    +0.142 HD
ENDBRANCH  37  39
ENDBRANCH  33  37
ENDBRANCH  32  34
BRANCH  32  41
ATOM     41  CB  VAL A   2      -1.286  21.584 -30.387  0.00  0.00    +0.027 C 
ATOM     42  CG2 VAL A   2      -0.750  21.803 -29.006  0.00  0.00    +0.002 C 
ATOM     43  CG1 VAL A   2      -2.546  22.415 -30.590  0.00  0.00    +0.002 C 
ENDBRANCH  32  41
ENDBRANCH  28  32
ENDBRANCH  27  29
BRANCH  27  44
ATOM     44  CB  GLU A   3      -3.493  17.137 -27.808  0.00  0.00    +0.041 C 
BRANCH  44  45
ATOM     45  CG  GLU A   3      -2.906  16.192 -28.842  0.00  0.00    +0.116 C 
BRANCH  45  46
ATOM     46  CD  GLU A   3      -1.852  15.305 -28.255  0.00  0.00    +0.365 C 
ATOM     47  OE2 GLU A   3      -1.082  15.785 -27.420  0.00  0.00    -0.246 OA
ATOM     48  OE1 GLU A   3      -1.799  14.120 -28.617  0.00  0.00    -0.246 OA
ENDBRANCH  45  46
ENDBRANCH  44  45
ENDBRANCH  27  44
ENDBRANCH   1  27
TORSDOF 22
REMARK  Name = ../refined-set-2016/4yo8/4yo8_pocket.pdb
REMARK  219 active torsions:
REMARK  status: ('A' for Active; 'I' for Inactive)
REMARK    1  A    between atoms: _1  and  _3
REMARK    2  A    between atoms: _3  and  _4
REMARK    3  A    between atoms: _6  and  _8
REMARK    4  A    between atoms: _8  and  _9
REMARK    5  A    between atoms: _12  and  _14
REMARK    6  A    between atoms: _14  and  _15
REMARK    7  A    between atoms: _14  and  _17
REMARK    8  A    between atoms: _17  and  _18
REMARK    9  A    between atoms: _18  and  _19
REMARK   10  A    between atoms: _21  and  _23
REMARK   11  A    between atoms: _23  and  _24
REMARK   12  A    between atoms: _23  and  _26
REMARK   13  A    between atoms: _26  and  _27
REMARK   14  A    between atoms: _27  and  _28
REMARK   15  A    between atoms: _31  and  _33
REMARK   16  A    between atoms: _33  and  _34
REMARK   17  A    between atoms: _33  and  _36
REMARK   18  A    between atoms: _36  and  _37
REMARK   19  A    between atoms: _39  and  _41
REMARK   20  A    between atoms: _41  and  _42
REMARK   21  A    between atoms: _41  and  _44
REMARK   22  A    between atoms: _44  and  _45
REMARK   23  A    between atoms: _45  and  _46
REMARK   24  A    between atoms: _46  and  _47
REMARK   25  A    between atoms: _47  and  _48
REMARK   26  A    between atoms: _52  and  _54
REMARK   27  A    between atoms: _54  and  _55
REMARK   28  A    between atoms: _54  and  _57
REMARK   29  A    between atoms: _57  and  _58
REMARK   30  A    between atoms: _61  and  _63
REMARK   31  A    between atoms: _63  and  _64
REMARK   32  A    between atoms: _66  and  _68
REMARK   33  A    between atoms: _68  and  _69
REMARK   34  A    between atoms: _68  and  _71
REMARK   35  A    between atoms: _71  and  _72
REMARK   36  A    between atoms: _72  and  _73
REMARK   37  A    between atoms: _73  and  _74
REMARK   38  A    between atoms: _74  and  _75
REMARK   39  A    between atoms: _79  and  _81
REMARK   40  A    between atoms: _81  and  _82
REMARK   41  A    between atoms: _81  and  _84
REMARK   42  A    between atoms: _84  and  _85
REMARK   43  A    between atoms: _91  and  _93
REMARK   44  A    between atoms: _93  and  _94
REMARK   45  A    between atoms: _96  and  _98
REMARK   46  A    between atoms: _98  and  _99
REMARK   47  A    between atoms: _98  and  _101
REMARK   48  A    between atoms: _104  and  _106
REMARK   49  A    between atoms: _106  and  _107
REMARK   50  A    between atoms: _110  and  _112
REMARK   51  A    between atoms: _112  and  _113
REMARK   52  A    between atoms: _115  and  _117
REMARK   53  A    between atoms: _117  and  _118
REMARK   54  A    between atoms: _117  and  _120
REMARK   55  A    between atoms: _120  and  _121
REMARK   56  A    between atoms: _123  and  _125
REMARK   57  A    between atoms: _125  and  _126
REMARK   58  A    between atoms: _125  and  _128
REMARK   59  A    between atoms: _128  and  _129
REMARK   60  A    between atoms: _132  and  _134
REMARK   61  A    between atoms: _134  and  _135
REMARK   62  A    between atoms: _134  and  _137
REMARK   63  A    between atoms: _137  and  _138
REMARK   64  A    between atoms: _143  and  _145
REMARK   65  A    between atoms: _145  and  _146
REMARK   66  A    between atoms: _149  and  _151
REMARK   67  A    between atoms: _151  and  _152
REMARK   68  A    between atoms: _151  and  _154
REMARK   69  A    between atoms: _154  and  _155
REMARK   70  A    between atoms: _157  and  _159
REMARK   71  A    between atoms: _159  and  _160
REMARK   72  A    between atoms: _162  and  _164
REMARK   73  A    between atoms: _164  and  _165
REMARK   74  A    between atoms: _164  and  _167
REMARK   75  A    between atoms: _167  and  _168
REMARK   76  A    between atoms: _171  and  _173
REMARK   77  A    between atoms: _173  and  _174
REMARK   78  A    between atoms: _173  and  _176
REMARK   79  A    between atoms: _176  and  _177
REMARK   80  A    between atoms: _177  and  _178
REMARK   81  A    between atoms: _183  and  _185
REMARK   82  A    between atoms: _185  and  _186
REMARK   83  A    between atoms: _185  and  _188
REMARK   84  A    between atoms: _188  and  _189
REMARK   85  A    between atoms: _195  and  _197
REMARK   86  A    between atoms: _197  and  _198
REMARK   87  A    between atoms: _197  and  _200
REMARK   88  A    between atoms: _203  and  _205
REMARK   89  A    between atoms: _205  and  _206
REMARK   90  A    between atoms: _205  and  _208
REMARK   91  A    between atoms: _208  and  _209
REMARK   92  A    between atoms: _214  and  _216
REMARK   93  A    between atoms: _216  and  _217
REMARK   94  A    between atoms: _216  and  _219
REMARK   95  A    between atoms: _219  and  _220
REMARK   96  A    between atoms: _222  and  _224
REMARK   97  A    between atoms: _224  and  _225
REMARK   98  A    between atoms: _224  and  _227
REMARK   99  A    between atoms: _227  and  _228
REMARK  100  A    between atoms: _228  and  _229
REMARK  101  A    between atoms: _229  and  _230
REMARK  102  A    between atoms: _230  and  _231
REMARK  103  A    between atoms: _235  and  _237
REMARK  104  A    between atoms: _237  and  _238
REMARK  105  A    between atoms: _237  and  _240
REMARK  106  A    between atoms: _240  and  _241
REMARK  107  A    between atoms: _244  and  _246
REMARK  108  A    between atoms: _246  and  _247
REMARK  109  A    between atoms: _250  and  _252
REMARK  110  A    between atoms: _252  and  _253
REMARK  111  A    between atoms: _252  and  _255
REMARK  112  A    between atoms: _258  and  _260
REMARK  113  A    between atoms: _260  and  _261
REMARK  114  A    between atoms: _260  and  _263
REMARK  115  A    between atoms: _263  and  _264
REMARK  116  A    between atoms: _264  and  _265
REMARK  117  A    between atoms: _268  and  _270
REMARK  118  A    between atoms: _270  and  _271
REMARK  119  A    between atoms: _270  and  _273
REMARK  120  A    between atoms: _273  and  _274
REMARK  121  A    between atoms: _274  and  _275
REMARK  122  A    between atoms: _277  and  _279
REMARK  123  A    between atoms: _279  and  _280
REMARK  124  A    between atoms: _279  and  _282
REMARK  125  A    between atoms: _282  and  _283
REMARK  126  A    between atoms: _283  and  _284
REMARK  127  A    between atoms: _287  and  _289
REMARK  128  A    between atoms: _289  and  _290
REMARK  129  A    between atoms: _292  and  _294
REMARK  130  A    between atoms: _294  and  _295
REMARK  131  A    between atoms: _294  and  _297
REMARK  132  A    between atoms: _297  and  _298
REMARK  133  A    between atoms: _298  and  _299
REMARK  134  A    between atoms: _299  and  _300
REMARK  135  A    between atoms: _309  and  _311
REMARK  136  A    between atoms: _311  and  _312
REMARK  137  A    between atoms: _311  and  _314
REMARK  138  A    between atoms: _314  and  _315
REMARK  139  A    between atoms: _317  and  _319
REMARK  140  A    between atoms: _319  and  _320
REMARK  141  A    between atoms: _319  and  _322
REMARK  142  A    between atoms: _322  and  _323
REMARK  143  A    between atoms: _326  and  _328
REMARK  144  A    between atoms: _328  and  _329
REMARK  145  A    between atoms: _328  and  _331
REMARK  146  A    between atoms: _331  and  _332
REMARK  147  A    between atoms: _334  and  _336
REMARK  148  A    between atoms: _336  and  _337
REMARK  149  A    between atoms: _336  and  _339
REMARK  150  A    between atoms: _339  and  _340
REMARK  151  A    between atoms: _343  and  _345
REMARK  152  A    between atoms: _345  and  _346
REMARK  153  A    between atoms: _345  and  _348
REMARK  154  A    between atoms: _348  and  _349
REMARK  155  A    between atoms: _354  and  _356
REMARK  156  A    between atoms: _356  and  _357
REMARK  157  A    between atoms: _360  and  _362
REMARK  158  A    between atoms: _362  and  _363
REMARK  159  A    between atoms: _362  and  _365
REMARK  160  A    between atoms: _365  and  _366
REMARK  161  A    between atoms: _369  and  _371
REMARK  162  A    between atoms: _371  and  _372
REMARK  163  A    between atoms: _375  and  _377
REMARK  164  A    between atoms: _377  and  _378
REMARK  165  A    between atoms: _380  and  _382
REMARK  166  A    between atoms: _382  and  _383
REMARK  167  A    between atoms: _382  and  _385
REMARK  168  A    between atoms: _385  and  _386
REMARK  169  A    between atoms: _388  and  _390
REMARK  170  A    between atoms: _390  and  _391
REMARK  171  A    between atoms: _390  and  _393
REMARK  172  A    between atoms: _393  and  _394
REMARK  173  A    between atoms: _400  and  _402
REMARK  174  A    between atoms: _402  and  _403
REMARK  175  A    between atoms: _402  and  _405
REMARK  176  A    between atoms: _405  and  _406
REMARK  177  A    between atoms: _409  and  _411
REMARK  178  A    between atoms: _411  and  _412
REMARK  179  A    between atoms: _411  and  _414
REMARK  180  A    between atoms: _414  and  _415
REMARK  181  A    between atoms: _418  and  _420
REMARK  182  A    between atoms: _420  and  _421
REMARK  183  A    between atoms: _420  and  _423
REMARK  184  A    between atoms: _423  and  _424
REMARK  185  A    between atoms: _426  and  _428
REMARK  186  A    between atoms: _428  and  _429
REMARK  187  A    between atoms: _428  and  _431
REMARK  188  A    between atoms: _431  and  _432
REMARK  189  A    between atoms: _435  and  _437
REMARK  190  A    between atoms: _437  and  _438
REMARK  191  A    between atoms: _437  and  _440
REMARK  192  A    between atoms: _440  and  _441
REMARK  193  A    between atoms: _444  and  _446
REMARK  194  A    between atoms: _446  and  _447
REMARK  195  A    between atoms: _446  and  _449
REMARK  196  A    between atoms: _449  and  _450
REMARK  197  A    between atoms: _452  and  _454
REMARK  198  A    between atoms: _454  and  _455
REMARK  199  A    between atoms: _458  and  _460
REMARK  200  A    between atoms: _460  and  _461
REMARK  201  A    between atoms: _460  and  _463
REMARK  202  A    between atoms: _463  and  _464
REMARK  203  A    between atoms: _470  and  _472
REMARK  204  A    between atoms: _472  and  _473
REMARK  205  A    between atoms: _472  and  _475
REMARK  206  A    between atoms: _475  and  _476
REMARK  207  A    between atoms: _479  and  _481
REMARK  208  A    between atoms: _481  and  _482
REMARK  209  A    between atoms: _481  and  _484
REMARK  210  A    between atoms: _484  and  _485
REMARK  211  A    between atoms: _490  and  _492
REMARK  212  A    between atoms: _492  and  _493
REMARK  213  A    between atoms: _492  and  _495
REMARK  214  A    between atoms: _495  and  _496
REMARK  215  A    between atoms: _502  and  _504
REMARK  216  A    between atoms: _504  and  _505
REMARK  217  A    between atoms: _504  and  _507
REMARK  218  A    between atoms: _507  and  _508
REMARK  219  A    between atoms: _512  and  _513
REMARK                            x       y       z     vdW  Elec       q    Type
REMARK                         _______ _______ _______ _____ _____    ______ ____
ROOT
ATOM      1  CA  SER A   4     -11.775  20.158 -31.831  0.00  0.00    +0.178 C 
ENDROOT
BRANCH   1   2
ATOM      2  C   SER A   4     -11.715  21.686 -31.907  0.00  0.00    +0.243 C 
ATOM      3  O   SER A   4     -12.663  22.338 -31.463  0.00  0.00    -0.273 OA
ATOM      4  N   ASP A   5     -10.626  22.255 -32.418  0.00  0.00    -0.296 N 
ATOM      5  H   ASP A   5      -9.890  21.657 -32.846  0.00  0.00    +0.150 HD
BRANCH   4   6
ATOM      6  CA  ASP A   5     -10.444  23.714 -32.389  0.00  0.00    +0.160 C 
BRANCH   6   7
ATOM      7  C   ASP A   5      -9.245  24.019 -33.228  0.00  0.00    +0.241 C 
ATOM      8  N   ASN A   6      -8.977  25.305 -33.434  0.00  0.00    -0.297 N 
ATOM      9  H   ASN A   6      -9.585  26.021 -32.989  0.00  0.00    +0.150 HD
ATOM     10  O   ASP A   5      -8.588  23.088 -33.719  0.00  0.00    -0.273 OA
BRANCH   8  11
ATOM     11  CA  ASN A   6      -7.855  25.749 -34.266  0.00  0.00    +0.158 C 
BRANCH  11  12
ATOM     12  C   ASN A   6      -6.694  26.313 -33.471  0.00  0.00    +0.241 C 
ATOM     13  N   ALA A   7      -6.700  26.060 -32.159  0.00  0.00    -0.297 N 
ATOM     14  H   ALA A   7      -7.553  25.642 -31.735  0.00  0.00    +0.150 HD
ATOM     15  O   ASN A   6      -5.813  26.958 -34.038  0.00  0.00    -0.273 OA
BRANCH  13  16
ATOM     16  CA  ALA A   7      -5.552  26.348 -31.293  0.00  0.00    +0.149 C 
ATOM     17  CB  ALA A   7      -4.346  25.526 -31.732  0.00  0.00    +0.031 C 
BRANCH  16  18
ATOM     18  C   ALA A   7      -5.202  27.843 -31.266  0.00  0.00    +0.241 C 
ATOM     19  O   ALA A   7      -4.057  28.212 -31.035  0.00  0.00    -0.273 OA
ATOM     20  N   ASP A   8      -6.215  28.678 -31.465  0.00  0.00    -0.298 N 
ATOM     21  H   ASP A   8      -7.172  28.280 -31.551  0.00  0.00    +0.150 HD
BRANCH  20  22
ATOM     22  CA  ASP A   8      -6.056  30.125 -31.569  0.00  0.00    +0.148 C 
BRANCH  22  23
ATOM     23  C   ASP A   8      -6.875  30.760 -30.460  0.00  0.00    +0.227 C 
ATOM     24  O   ASP A   8      -7.407  30.075 -29.590  0.00  0.00    -0.286 OA
ENDBRANCH  22  23
BRANCH  22  25
ATOM     25  CB  ASP A   8      -6.526  30.610 -32.956  0.00  0.00    +0.142 C 
BRANCH  25  26
ATOM     26  CG  ASP A   8      -7.996  30.261 -33.249  0.00  0.00    +0.367 C 
ATOM     27  OD2 ASP A   8      -8.794  29.962 -32.313  0.00  0.00    -0.246 OA
ATOM     28  OD1 ASP A   8      -8.358  30.279 -34.447  0.00  0.00    -0.246 OA
ENDBRANCH  25  26
ENDBRANCH  22  25
ENDBRANCH  20  22
ENDBRANCH  16  18
ENDBRANCH  13  16
ENDBRANCH  11  12
BRANCH  11  29
ATOM     29  CB  ASN A   6      -8.341  26.753 -35.324  0.00  0.00    +0.114 C 
BRANCH  29  30
ATOM     30  CG  ASN A   6      -9.392  26.150 -36.238  0.00  0.00    +0.222 C 
ATOM     31  OD1 ASN A   6     -10.539  26.569 -36.254  0.00  0.00    -0.275 OA
ATOM     32  ND2 ASN A   6      -9.009  25.133 -36.972  0.00  0.00    -0.329 N 
ATOM     33 HD21 ASN A   6      -8.023  24.805 -36.932  0.00  0.00    +0.145 HD
ATOM     34 HD22 ASN A   6      -9.691  24.655 -37.595  0.00  0.00    +0.145 HD
ENDBRANCH  29  30
ENDBRANCH  11  29
ENDBRANCH   8  11
ENDBRANCH   6   7
BRANCH   6  35
ATOM     35  CB  ASP A   5     -10.233  24.230 -30.964  0.00  0.00    +0.143 C 
BRANCH  35  36
ATOM     36  CG  ASP A   5      -9.017  23.567 -30.274  0.00  0.00    +0.367 C 
ATOM     37  OD2 ASP A   5      -9.190  22.487 -29.633  0.00  0.00    -0.246 OA
ATOM     38  OD1 ASP A   5      -7.909  24.134 -30.396  0.00  0.00    -0.246 OA
ENDBRANCH  35  36
ENDBRANCH   6  35
ENDBRANCH   4   6
ENDBRANCH   1   2
BRANCH   1  40
ATOM     39  C   ILE A   3     -11.047  18.693 -33.660  0.00  0.00    +0.241 C 
ATOM     40  N   SER A   4     -10.742  19.459 -32.603  0.00  0.00    -0.295 N 
ATOM     41  H   SER A   4      -9.746  19.560 -32.323  0.00  0.00    +0.150 HD
ATOM     42  O   ILE A   3     -12.201  18.467 -34.025  0.00  0.00    -0.273 OA
BRANCH  39  43
ATOM     43  CA  ILE A   3      -9.878  18.065 -34.393  0.00  0.00    +0.149 C 
BRANCH  43  46
ATOM     44  C   SER A   2     -10.116  15.770 -33.641  0.00  0.00    +0.243 C 
ATOM     45  O   SER A   2     -10.116  16.102 -32.470  0.00  0.00    -0.273 OA
ATOM     46  N   ILE A   3     -10.129  16.648 -34.629  0.00  0.00    -0.297 N 
ATOM     47  H   ILE A   3     -10.323  16.321 -35.597  0.00  0.00    +0.150 HD
BRANCH  44  48
ATOM     48  CA  SER A   2     -10.149  14.306 -34.037  0.00  0.00    +0.178 C 
BRANCH  48  50
ATOM     49  C   ARG A   1      -8.052  13.045 -33.760  0.00  0.00    +0.238 C 
ATOM     50  N   SER A   2      -9.174  13.562 -33.249  0.00  0.00    -0.295 N 
ATOM     51  H   SER A   2      -9.361  13.426 -32.235  0.00  0.00    +0.150 HD
ATOM     52  O   ARG A   1      -7.813  12.972 -34.952  0.00  0.00    -0.274 OA
BRANCH  49  53
ATOM     53  CA  ARG A   1      -7.037  12.521 -32.759  0.00  0.00    +0.145 C 
BRANCH  53  54
ATOM     54  N   ARG A   1      -6.349  11.341 -33.286  0.00  0.00    -0.238 NA
ATOM     55  H   ARG A   1      -6.038  11.316 -34.278  0.00  0.00    +0.142 HD
ENDBRANCH  53  54
BRANCH  53  56
ATOM     56  CB  ARG A   1      -6.047  13.649 -32.374  0.00  0.00    +0.030 C 
BRANCH  56  57
ATOM     57  CG  ARG A   1      -5.004  13.304 -31.284  0.00  0.00    +0.045 C 
BRANCH  57  58
ATOM     58  CD  ARG A   1      -5.592  13.127 -29.880  0.00  0.00    +0.174 C 
BRANCH  58  59
ATOM     59  NE  ARG A   1      -4.589  13.153 -28.800  0.00  0.00    -0.265 N 
ATOM     60  CZ  ARG A   1      -4.842  13.594 -27.548  0.00  0.00    +0.342 C 
ATOM     61  NH2 ARG A   1      -3.885  13.599 -26.606  0.00  0.00    -0.292 N 
ATOM     62 HH21 ARG A   1      -4.100  13.942 -25.648  0.00  0.00    +0.255 HD
ATOM     63 HH22 ARG A   1      -2.929  13.259 -26.834  0.00  0.00    +0.255 HD
ATOM     64  NH1 ARG A   1      -6.057  14.047 -27.201  0.00  0.00    -0.292 N 
ATOM     65 HH11 ARG A   1      -6.230  14.382 -26.232  0.00  0.00    +0.255 HD
ATOM     66 HH12 ARG A   1      -6.826  14.063 -27.902  0.00  0.00    +0.255 HD
ATOM     67  HE  ARG A   1      -3.630  12.812 -29.014  0.00  0.00    +0.259 HD
ENDBRANCH  58  59
ENDBRANCH  57  58
ENDBRANCH  56  57
ENDBRANCH  53  56
ENDBRANCH  49  53
ENDBRANCH  48  50
BRANCH  48  68
ATOM     68  CB  SER A   2     -11.543  13.754 -33.807  0.00  0.00    +0.166 C 
BRANCH  68  69
ATOM     69  OG  SER A   2     -12.490  14.390 -34.636  0.00  0.00    -0.380 OA
ATOM     70  H   SER A   2     -12.246  14.246 -35.585  0.00  0.00    +0.211 HD
ENDBRANCH  68  69
ENDBRANCH  48  68
ENDBRANCH  44  48
ENDBRANCH  43  46
BRANCH  43  71
ATOM     71  CB  ILE A   3      -9.637  18.833 -35.712  0.00  0.00    +0.027 C 
ATOM     72  CG2 ILE A   3      -9.463  20.328 -35.455  0.00  0.00    +0.002 C 
BRANCH  71  73
ATOM     73  CG1 ILE A   3      -8.402  18.299 -36.437  0.00  0.00    +0.002 C 
ATOM     74  CD1 ILE A   3      -7.119  18.388 -35.638  0.00  0.00    +0.000 C 
ENDBRANCH  71  73
ENDBRANCH  43  71
ENDBRANCH  39  43
ENDBRANCH   1  40
BRANCH   1  75
ATOM     75  CB  SER A   4     -11.703  19.765 -30.365  0.00  0.00    +0.166 C 
BRANCH  75  76
ATOM     76  OG  SER A   4     -10.419  20.059 -29.847  0.00  0.00    -0.380 OA
ATOM     77  H   SER A   4     -10.244  21.030 -29.933  0.00  0.00    +0.211 HD
ENDBRANCH  75  76
ENDBRANCH   1  75
TORSDOF 32
REMARK  Name = ../refined-set-2016/4yo8/4yo8_pocket.pdb
REMARK  219 active torsions:
REMARK  status: ('A' for Active; 'I' for Inactive)
REMARK    1  A    between atoms: _1  and  _3
REMARK    2  A    between atoms: _3  and  _4
REMARK    3  A    between atoms: _6  and  _8
REMARK    4  A    between atoms: _8  and  _9
REMARK    5  A    between atoms: _12  and  _14
REMARK    6  A    between atoms: _14  and  _15
REMARK    7  A    between atoms: _14  and  _17
REMARK    8  A    between atoms: _17  and  _18
REMARK    9  A    between atoms: _18  and  _19
REMARK   10  A    between atoms: _21  and  _23
REMARK   11  A    between atoms: _23  and  _24
REMARK   12  A    between atoms: _23  and  _26
REMARK   13  A    between atoms: _26  and  _27
REMARK   14  A    between atoms: _27  and  _28
REMARK   15  A    between atoms: _31  and  _33
REMARK   16  A    between atoms: _33  and  _34
REMARK   17  A    between atoms: _33  and  _36
REMARK   18  A    between atoms: _36  and  _37
REMARK   19  A    between atoms: _39  and  _41
REMARK   20  A    between atoms: _41  and  _42
REMARK   21  A    between atoms: _41  and  _44
REMARK   22  A    between atoms: _44  and  _45
REMARK   23  A    between atoms: _45  and  _46
REMARK   24  A    between atoms: _46  and  _47
REMARK   25  A    between atoms: _47  and  _48
REMARK   26  A    between atoms: _52  and  _54
REMARK   27  A    between atoms: _54  and  _55
REMARK   28  A    between atoms: _54  and  _57
REMARK   29  A    between atoms: _57  and  _58
REMARK   30  A    between atoms: _61  and  _63
REMARK   31  A    between atoms: _63  and  _64
REMARK   32  A    between atoms: _66  and  _68
REMARK   33  A    between atoms: _68  and  _69
REMARK   34  A    between atoms: _68  and  _71
REMARK   35  A    between atoms: _71  and  _72
REMARK   36  A    between atoms: _72  and  _73
REMARK   37  A    between atoms: _73  and  _74
REMARK   38  A    between atoms: _74  and  _75
REMARK   39  A    between atoms: _79  and  _81
REMARK   40  A    between atoms: _81  and  _82
REMARK   41  A    between atoms: _81  and  _84
REMARK   42  A    between atoms: _84  and  _85
REMARK   43  A    between atoms: _91  and  _93
REMARK   44  A    between atoms: _93  and  _94
REMARK   45  A    between atoms: _96  and  _98
REMARK   46  A    between atoms: _98  and  _99
REMARK   47  A    between atoms: _98  and  _101
REMARK   48  A    between atoms: _104  and  _106
REMARK   49  A    between atoms: _106  and  _107
REMARK   50  A    between atoms: _110  and  _112
REMARK   51  A    between atoms: _112  and  _113
REMARK   52  A    between atoms: _115  and  _117
REMARK   53  A    between atoms: _117  and  _118
REMARK   54  A    between atoms: _117  and  _120
REMARK   55  A    between atoms: _120  and  _121
REMARK   56  A    between atoms: _123  and  _125
REMARK   57  A    between atoms: _125  and  _126
REMARK   58  A    between atoms: _125  and  _128
REMARK   59  A    between atoms: _128  and  _129
REMARK   60  A    between atoms: _132  and  _134
REMARK   61  A    between atoms: _134  and  _135
REMARK   62  A    between atoms: _134  and  _137
REMARK   63  A    between atoms: _137  and  _138
REMARK   64  A    between atoms: _143  and  _145
REMARK   65  A    between atoms: _145  and  _146
REMARK   66  A    between atoms: _149  and  _151
REMARK   67  A    between atoms: _151  and  _152
REMARK   68  A    between atoms: _151  and  _154
REMARK   69  A    between atoms: _154  and  _155
REMARK   70  A    between atoms: _157  and  _159
REMARK   71  A    between atoms: _159  and  _160
REMARK   72  A    between atoms: _162  and  _164
REMARK   73  A    between atoms: _164  and  _165
REMARK   74  A    between atoms: _164  and  _167
REMARK   75  A    between atoms: _167  and  _168
REMARK   76  A    between atoms: _171  and  _173
REMARK   77  A    between atoms: _173  and  _174
REMARK   78  A    between atoms: _173  and  _176
REMARK   79  A    between atoms: _176  and  _177
REMARK   80  A    between atoms: _177  and  _178
REMARK   81  A    between atoms: _183  and  _185
REMARK   82  A    between atoms: _185  and  _186
REMARK   83  A    between atoms: _185  and  _188
REMARK   84  A    between atoms: _188  and  _189
REMARK   85  A    between atoms: _195  and  _197
REMARK   86  A    between atoms: _197  and  _198
REMARK   87  A    between atoms: _197  and  _200
REMARK   88  A    between atoms: _203  and  _205
REMARK   89  A    between atoms: _205  and  _206
REMARK   90  A    between atoms: _205  and  _208
REMARK   91  A    between atoms: _208  and  _209
REMARK   92  A    between atoms: _214  and  _216
REMARK   93  A    between atoms: _216  and  _217
REMARK   94  A    between atoms: _216  and  _219
REMARK   95  A    between atoms: _219  and  _220
REMARK   96  A    between atoms: _222  and  _224
REMARK   97  A    between atoms: _224  and  _225
REMARK   98  A    between atoms: _224  and  _227
REMARK   99  A    between atoms: _227  and  _228
REMARK  100  A    between atoms: _228  and  _229
REMARK  101  A    between atoms: _229  and  _230
REMARK  102  A    between atoms: _230  and  _231
REMARK  103  A    between atoms: _235  and  _237
REMARK  104  A    between atoms: _237  and  _238
REMARK  105  A    between atoms: _237  and  _240
REMARK  106  A    between atoms: _240  and  _241
REMARK  107  A    between atoms: _244  and  _246
REMARK  108  A    between atoms: _246  and  _247
REMARK  109  A    between atoms: _250  and  _252
REMARK  110  A    between atoms: _252  and  _253
REMARK  111  A    between atoms: _252  and  _255
REMARK  112  A    between atoms: _258  and  _260
REMARK  113  A    between atoms: _260  and  _261
REMARK  114  A    between atoms: _260  and  _263
REMARK  115  A    between atoms: _263  and  _264
REMARK  116  A    between atoms: _264  and  _265
REMARK  117  A    between atoms: _268  and  _270
REMARK  118  A    between atoms: _270  and  _271
REMARK  119  A    between atoms: _270  and  _273
REMARK  120  A    between atoms: _273  and  _274
REMARK  121  A    between atoms: _274  and  _275
REMARK  122  A    between atoms: _277  and  _279
REMARK  123  A    between atoms: _279  and  _280
REMARK  124  A    between atoms: _279  and  _282
REMARK  125  A    between atoms: _282  and  _283
REMARK  126  A    between atoms: _283  and  _284
REMARK  127  A    between atoms: _287  and  _289
REMARK  128  A    between atoms: _289  and  _290
REMARK  129  A    between atoms: _292  and  _294
REMARK  130  A    between atoms: _294  and  _295
REMARK  131  A    between atoms: _294  and  _297
REMARK  132  A    between atoms: _297  and  _298
REMARK  133  A    between atoms: _298  and  _299
REMARK  134  A    between atoms: _299  and  _300
REMARK  135  A    between atoms: _309  and  _311
REMARK  136  A    between atoms: _311  and  _312
REMARK  137  A    between atoms: _311  and  _314
REMARK  138  A    between atoms: _314  and  _315
REMARK  139  A    between atoms: _317  and  _319
REMARK  140  A    between atoms: _319  and  _320
REMARK  141  A    between atoms: _319  and  _322
REMARK  142  A    between atoms: _322  and  _323
REMARK  143  A    between atoms: _326  and  _328
REMARK  144  A    between atoms: _328  and  _329
REMARK  145  A    between atoms: _328  and  _331
REMARK  146  A    between atoms: _331  and  _332
REMARK  147  A    between atoms: _334  and  _336
REMARK  148  A    between atoms: _336  and  _337
REMARK  149  A    between atoms: _336  and  _339
REMARK  150  A    between atoms: _339  and  _340
REMARK  151  A    between atoms: _343  and  _345
REMARK  152  A    between atoms: _345  and  _346
REMARK  153  A    between atoms: _345  and  _348
REMARK  154  A    between atoms: _348  and  _349
REMARK  155  A    between atoms: _354  and  _356
REMARK  156  A    between atoms: _356  and  _357
REMARK  157  A    between atoms: _360  and  _362
REMARK  158  A    between atoms: _362  and  _363
REMARK  159  A    between atoms: _362  and  _365
REMARK  160  A    between atoms: _365  and  _366
REMARK  161  A    between atoms: _369  and  _371
REMARK  162  A    between atoms: _371  and  _372
REMARK  163  A    between atoms: _375  and  _377
REMARK  164  A    between atoms: _377  and  _378
REMARK  165  A    between atoms: _380  and  _382
REMARK  166  A    between atoms: _382  and  _383
REMARK  167  A    between atoms: _382  and  _385
REMARK  168  A    between atoms: _385  and  _386
REMARK  169  A    between atoms: _388  and  _390
REMARK  170  A    between atoms: _390  and  _391
REMARK  171  A    between atoms: _390  and  _393
REMARK  172  A    between atoms: _393  and  _394
REMARK  173  A    between atoms: _400  and  _402
REMARK  174  A    between atoms: _402  and  _403
REMARK  175  A    between atoms: _402  and  _405
REMARK  176  A    between atoms: _405  and  _406
REMARK  177  A    between atoms: _409  and  _411
REMARK  178  A    between atoms: _411  and  _412
REMARK  179  A    between atoms: _411  and  _414
REMARK  180  A    between atoms: _414  and  _415
REMARK  181  A    between atoms: _418  and  _420
REMARK  182  A    between atoms: _420  and  _421
REMARK  183  A    between atoms: _420  and  _423
REMARK  184  A    between atoms: _423  and  _424
REMARK  185  A    between atoms: _426  and  _428
REMARK  186  A    between atoms: _428  and  _429
REMARK  187  A    between atoms: _428  and  _431
REMARK  188  A    between atoms: _431  and  _432
REMARK  189  A    between atoms: _435  and  _437
REMARK  190  A    between atoms: _437  and  _438
REMARK  191  A    between atoms: _437  and  _440
REMARK  192  A    between atoms: _440  and  _441
REMARK  193  A    between atoms: _444  and  _446
REMARK  194  A    between atoms: _446  and  _447
REMARK  195  A    between atoms: _446  and  _449
REMARK  196  A    between atoms: _449  and  _450
REMARK  197  A    between atoms: _452  and  _454
REMARK  198  A    between atoms: _454  and  _455
REMARK  199  A    between atoms: _458  and  _460
REMARK  200  A    between atoms: _460  and  _461
REMARK  201  A    between atoms: _460  and  _463
REMARK  202  A    between atoms: _463  and  _464
REMARK  203  A    between atoms: _470  and  _472
REMARK  204  A    between atoms: _472  and  _473
REMARK  205  A    between atoms: _472  and  _475
REMARK  206  A    between atoms: _475  and  _476
REMARK  207  A    between atoms: _479  and  _481
REMARK  208  A    between atoms: _481  and  _482
REMARK  209  A    between atoms: _481  and  _484
REMARK  210  A    between atoms: _484  and  _485
REMARK  211  A    between atoms: _490  and  _492
REMARK  212  A    between atoms: _492  and  _493
REMARK  213  A    between atoms: _492  and  _495
REMARK  214  A    between atoms: _495  and  _496
REMARK  215  A    between atoms: _502  and  _504
REMARK  216  A    between atoms: _504  and  _505
REMARK  217  A    between atoms: _504  and  _507
REMARK  218  A    between atoms: _507  and  _508
REMARK  219  A    between atoms: _512  and  _513
REMARK                            x       y       z     vdW  Elec       q    Type
REMARK                         _______ _______ _______ _____ _____    ______ ____
ROOT
ATOM      1  C   ALA A   1     -10.592  27.097 -27.938  0.00  0.00    +0.238 C 
ATOM      2  N   GLY A   2     -10.616  27.852 -26.845  0.00  0.00    -0.297 N 
ATOM      3  H   GLY A   2     -10.082  28.744 -26.843  0.00  0.00    +0.150 HD
ATOM      4  O   ALA A   1     -11.154  26.014 -28.023  0.00  0.00    -0.274 OA
ENDROOT
BRANCH   1   5
ATOM      5  CA  ALA A   1      -9.792  27.635 -29.097  0.00  0.00    +0.145 C 
ATOM      6  CB  ALA A   1      -8.326  27.266 -28.904  0.00  0.00    +0.028 C 
BRANCH   5   7
ATOM      7  N   ALA A   1      -9.934  29.092 -29.280  0.00  0.00    -0.238 NA
ATOM      8  H   ALA A   1      -9.093  29.694 -29.170  0.00  0.00    +0.142 HD
ENDBRANCH   5   7
ENDBRANCH   1   5
BRANCH   2   9
ATOM      9  CA  GLY A   2     -11.361  27.480 -25.649  0.00  0.00    +0.163 C 
BRANCH   9  10
ATOM     10  C   GLY A   2     -12.811  27.198 -25.937  0.00  0.00    +0.229 C 
ATOM     11  O   GLY A   2     -13.357  26.177 -25.474  0.00  0.00    -0.286 OA
ENDBRANCH   9  10
ENDBRANCH   2   9
TORSDOF 4
REMARK  Name = ../refined-set-2016/4yo8/4yo8_pocket.pdb
REMARK  219 active torsions:
REMARK  status: ('A' for Active; 'I' for Inactive)
REMARK    1  A    between atoms: _1  and  _3
REMARK    2  A    between atoms: _3  and  _4
REMARK    3  A    between atoms: _6  and  _8
REMARK    4  A    between atoms: _8  and  _9
REMARK    5  A    between atoms: _12  and  _14
REMARK    6  A    between atoms: _14  and  _15
REMARK    7  A    between atoms: _14  and  _17
REMARK    8  A    between atoms: _17  and  _18
REMARK    9  A    between atoms: _18  and  _19
REMARK   10  A    between atoms: _21  and  _23
REMARK   11  A    between atoms: _23  and  _24
REMARK   12  A    between atoms: _23  and  _26
REMARK   13  A    between atoms: _26  and  _27
REMARK   14  A    between atoms: _27  and  _28
REMARK   15  A    between atoms: _31  and  _33
REMARK   16  A    between atoms: _33  and  _34
REMARK   17  A    between atoms: _33  and  _36
REMARK   18  A    between atoms: _36  and  _37
REMARK   19  A    between atoms: _39  and  _41
REMARK   20  A    between atoms: _41  and  _42
REMARK   21  A    between atoms: _41  and  _44
REMARK   22  A    between atoms: _44  and  _45
REMARK   23  A    between atoms: _45  and  _46
REMARK   24  A    between atoms: _46  and  _47
REMARK   25  A    between atoms: _47  and  _48
REMARK   26  A    between atoms: _52  and  _54
REMARK   27  A    between atoms: _54  and  _55
REMARK   28  A    between atoms: _54  and  _57
REMARK   29  A    between atoms: _57  and  _58
REMARK   30  A    between atoms: _61  and  _63
REMARK   31  A    between atoms: _63  and  _64
REMARK   32  A    between atoms: _66  and  _68
REMARK   33  A    between atoms: _68  and  _69
REMARK   34  A    between atoms: _68  and  _71
REMARK   35  A    between atoms: _71  and  _72
REMARK   36  A    between atoms: _72  and  _73
REMARK   37  A    between atoms: _73  and  _74
REMARK   38  A    between atoms: _74  and  _75
REMARK   39  A    between atoms: _79  and  _81
REMARK   40  A    between atoms: _81  and  _82
REMARK   41  A    between atoms: _81  and  _84
REMARK   42  A    between atoms: _84  and  _85
REMARK   43  A    between atoms: _91  and  _93
REMARK   44  A    between atoms: _93  and  _94
REMARK   45  A    between atoms: _96  and  _98
REMARK   46  A    between atoms: _98  and  _99
REMARK   47  A    between atoms: _98  and  _101
REMARK   48  A    between atoms: _104  and  _106
REMARK   49  A    between atoms: _106  and  _107
REMARK   50  A    between atoms: _110  and  _112
REMARK   51  A    between atoms: _112  and  _113
REMARK   52  A    between atoms: _115  and  _117
REMARK   53  A    between atoms: _117  and  _118
REMARK   54  A    between atoms: _117  and  _120
REMARK   55  A    between atoms: _120  and  _121
REMARK   56  A    between atoms: _123  and  _125
REMARK   57  A    between atoms: _125  and  _126
REMARK   58  A    between atoms: _125  and  _128
REMARK   59  A    between atoms: _128  and  _129
REMARK   60  A    between atoms: _132  and  _134
REMARK   61  A    between atoms: _134  and  _135
REMARK   62  A    between atoms: _134  and  _137
REMARK   63  A    between atoms: _137  and  _138
REMARK   64  A    between atoms: _143  and  _145
REMARK   65  A    between atoms: _145  and  _146
REMARK   66  A    between atoms: _149  and  _151
REMARK   67  A    between atoms: _151  and  _152
REMARK   68  A    between atoms: _151  and  _154
REMARK   69  A    between atoms: _154  and  _155
REMARK   70  A    between atoms: _157  and  _159
REMARK   71  A    between atoms: _159  and  _160
REMARK   72  A    between atoms: _162  and  _164
REMARK   73  A    between atoms: _164  and  _165
REMARK   74  A    between atoms: _164  and  _167
REMARK   75  A    between atoms: _167  and  _168
REMARK   76  A    between atoms: _171  and  _173
REMARK   77  A    between atoms: _173  and  _174
REMARK   78  A    between atoms: _173  and  _176
REMARK   79  A    between atoms: _176  and  _177
REMARK   80  A    between atoms: _177  and  _178
REMARK   81  A    between atoms: _183  and  _185
REMARK   82  A    between atoms: _185  and  _186
REMARK   83  A    between atoms: _185  and  _188
REMARK   84  A    between atoms: _188  and  _189
REMARK   85  A    between atoms: _195  and  _197
REMARK   86  A    between atoms: _197  and  _198
REMARK   87  A    between atoms: _197  and  _200
REMARK   88  A    between atoms: _203  and  _205
REMARK   89  A    between atoms: _205  and  _206
REMARK   90  A    between atoms: _205  and  _208
REMARK   91  A    between atoms: _208  and  _209
REMARK   92  A    between atoms: _214  and  _216
REMARK   93  A    between atoms: _216  and  _217
REMARK   94  A    between atoms: _216  and  _219
REMARK   95  A    between atoms: _219  and  _220
REMARK   96  A    between atoms: _222  and  _224
REMARK   97  A    between atoms: _224  and  _225
REMARK   98  A    between atoms: _224  and  _227
REMARK   99  A    between atoms: _227  and  _228
REMARK  100  A    between atoms: _228  and  _229
REMARK  101  A    between atoms: _229  and  _230
REMARK  102  A    between atoms: _230  and  _231
REMARK  103  A    between atoms: _235  and  _237
REMARK  104  A    between atoms: _237  and  _238
REMARK  105  A    between atoms: _237  and  _240
REMARK  106  A    between atoms: _240  and  _241
REMARK  107  A    between atoms: _244  and  _246
REMARK  108  A    between atoms: _246  and  _247
REMARK  109  A    between atoms: _250  and  _252
REMARK  110  A    between atoms: _252  and  _253
REMARK  111  A    between atoms: _252  and  _255
REMARK  112  A    between atoms: _258  and  _260
REMARK  113  A    between atoms: _260  and  _261
REMARK  114  A    between atoms: _260  and  _263
REMARK  115  A    between atoms: _263  and  _264
REMARK  116  A    between atoms: _264  and  _265
REMARK  117  A    between atoms: _268  and  _270
REMARK  118  A    between atoms: _270  and  _271
REMARK  119  A    between atoms: _270  and  _273
REMARK  120  A    between atoms: _273  and  _274
REMARK  121  A    between atoms: _274  and  _275
REMARK  122  A    between atoms: _277  and  _279
REMARK  123  A    between atoms: _279  and  _280
REMARK  124  A    between atoms: _279  and  _282
REMARK  125  A    between atoms: _282  and  _283
REMARK  126  A    between atoms: _283  and  _284
REMARK  127  A    between atoms: _287  and  _289
REMARK  128  A    between atoms: _289  and  _290
REMARK  129  A    between atoms: _292  and  _294
REMARK  130  A    between atoms: _294  and  _295
REMARK  131  A    between atoms: _294  and  _297
REMARK  132  A    between atoms: _297  and  _298
REMARK  133  A    between atoms: _298  and  _299
REMARK  134  A    between atoms: _299  and  _300
REMARK  135  A    between atoms: _309  and  _311
REMARK  136  A    between atoms: _311  and  _312
REMARK  137  A    between atoms: _311  and  _314
REMARK  138  A    between atoms: _314  and  _315
REMARK  139  A    between atoms: _317  and  _319
REMARK  140  A    between atoms: _319  and  _320
REMARK  141  A    between atoms: _319  and  _322
REMARK  142  A    between atoms: _322  and  _323
REMARK  143  A    between atoms: _326  and  _328
REMARK  144  A    between atoms: _328  and  _329
REMARK  145  A    between atoms: _328  and  _331
REMARK  146  A    between atoms: _331  and  _332
REMARK  147  A    between atoms: _334  and  _336
REMARK  148  A    between atoms: _336  and  _337
REMARK  149  A    between atoms: _336  and  _339
REMARK  150  A    between atoms: _339  and  _340
REMARK  151  A    between atoms: _343  and  _345
REMARK  152  A    between atoms: _345  and  _346
REMARK  153  A    between atoms: _345  and  _348
REMARK  154  A    between atoms: _348  and  _349
REMARK  155  A    between atoms: _354  and  _356
REMARK  156  A    between atoms: _356  and  _357
REMARK  157  A    between atoms: _360  and  _362
REMARK  158  A    between atoms: _362  and  _363
REMARK  159  A    between atoms: _362  and  _365
REMARK  160  A    between atoms: _365  and  _366
REMARK  161  A    between atoms: _369  and  _371
REMARK  162  A    between atoms: _371  and  _372
REMARK  163  A    between atoms: _375  and  _377
REMARK  164  A    between atoms: _377  and  _378
REMARK  165  A    between atoms: _380  and  _382
REMARK  166  A    between atoms: _382  and  _383
REMARK  167  A    between atoms: _382  and  _385
REMARK  168  A    between atoms: _385  and  _386
REMARK  169  A    between atoms: _388  and  _390
REMARK  170  A    between atoms: _390  and  _391
REMARK  171  A    between atoms: _390  and  _393
REMARK  172  A    between atoms: _393  and  _394
REMARK  173  A    between atoms: _400  and  _402
REMARK  174  A    between atoms: _402  and  _403
REMARK  175  A    between atoms: _402  and  _405
REMARK  176  A    between atoms: _405  and  _406
REMARK  177  A    between atoms: _409  and  _411
REMARK  178  A    between atoms: _411  and  _412
REMARK  179  A    between atoms: _411  and  _414
REMARK  180  A    between atoms: _414  and  _415
REMARK  181  A    between atoms: _418  and  _420
REMARK  182  A    between atoms: _420  and  _421
REMARK  183  A    between atoms: _420  and  _423
REMARK  184  A    between atoms: _423  and  _424
REMARK  185  A    between atoms: _426  and  _428
REMARK  186  A    between atoms: _428  and  _429
REMARK  187  A    between atoms: _428  and  _431
REMARK  188  A    between atoms: _431  and  _432
REMARK  189  A    between atoms: _435  and  _437
REMARK  190  A    between atoms: _437  and  _438
REMARK  191  A    between atoms: _437  and  _440
REMARK  192  A    between atoms: _440  and  _441
REMARK  193  A    between atoms: _444  and  _446
REMARK  194  A    between atoms: _446  and  _447
REMARK  195  A    between atoms: _446  and  _449
REMARK  196  A    between atoms: _449  and  _450
REMARK  197  A    between atoms: _452  and  _454
REMARK  198  A    between atoms: _454  and  _455
REMARK  199  A    between atoms: _458  and  _460
REMARK  200  A    between atoms: _460  and  _461
REMARK  201  A    between atoms: _460  and  _463
REMARK  202  A    between atoms: _463  and  _464
REMARK  203  A    between atoms: _470  and  _472
REMARK  204  A    between atoms: _472  and  _473
REMARK  205  A    between atoms: _472  and  _475
REMARK  206  A    between atoms: _475  and  _476
REMARK  207  A    between atoms: _479  and  _481
REMARK  208  A    between atoms: _481  and  _482
REMARK  209  A    between atoms: _481  and  _484
REMARK  210  A    between atoms: _484  and  _485
REMARK  211  A    between atoms: _490  and  _492
REMARK  212  A    between atoms: _492  and  _493
REMARK  213  A    between atoms: _492  and  _495
REMARK  214  A    between atoms: _495  and  _496
REMARK  215  A    between atoms: _502  and  _504
REMARK  216  A    between atoms: _504  and  _505
REMARK  217  A    between atoms: _504  and  _507
REMARK  218  A    between atoms: _507  and  _508
REMARK  219  A    between atoms: _512  and  _513
REMARK                            x       y       z     vdW  Elec       q    Type
REMARK                         _______ _______ _______ _____ _____    ______ ____
ROOT
ATOM      1  CA  PHE A   2     -13.078  22.988 -27.811  0.00  0.00    +0.153 C 
ENDROOT
BRANCH   1   3
ATOM      2  C   SER A   1     -14.297  24.405 -29.359  0.00  0.00    +0.241 C 
ATOM      3  N   PHE A   2     -13.278  24.243 -28.522  0.00  0.00    -0.297 N 
ATOM      4  H   PHE A   2     -12.611  25.027 -28.372  0.00  0.00    +0.150 HD
ATOM      5  O   SER A   1     -15.124  23.518 -29.568  0.00  0.00    -0.274 OA
BRANCH   2   6
ATOM      6  CA  SER A   1     -14.443  25.791 -30.014  0.00  0.00    +0.174 C 
BRANCH   6   7
ATOM      7  N   SER A   1     -14.309  26.830 -29.003  0.00  0.00    -0.236 NA
ATOM      8  H   SER A   1     -13.541  27.526 -29.085  0.00  0.00    +0.142 HD
ENDBRANCH   6   7
BRANCH   6   9
ATOM      9  CB  SER A   1     -13.433  26.022 -31.140  0.00  0.00    +0.163 C 
BRANCH   9  10
ATOM     10  OG  SER A   1     -13.495  25.006 -32.149  0.00  0.00    -0.380 OA
ATOM     11  H   SER A   1     -13.302  24.125 -31.741  0.00  0.00    +0.211 HD
ENDBRANCH   9  10
ENDBRANCH   6   9
ENDBRANCH   2   6
ENDBRANCH   1   3
BRANCH   1  12
ATOM     12  C   PHE A   2     -14.313  22.573 -27.014  0.00  0.00    +0.241 C 
ATOM     13  N   ASP A   3     -14.868  23.536 -26.281  0.00  0.00    -0.298 N 
ATOM     14  H   ASP A   3     -14.439  24.483 -26.313  0.00  0.00    +0.150 HD
ATOM     15  O   PHE A   2     -14.741  21.418 -27.053  0.00  0.00    -0.273 OA
BRANCH  13  16
ATOM     16  CA  ASP A   3     -16.042  23.343 -25.435  0.00  0.00    +0.148 C 
BRANCH  16  17
ATOM     17  C   ASP A   3     -17.269  22.896 -26.233  0.00  0.00    +0.227 C 
ATOM     18  O   ASP A   3     -18.047  22.019 -25.788  0.00  0.00    -0.286 OA
ENDBRANCH  16  17
BRANCH  16  19
ATOM     19  CB  ASP A   3     -16.311  24.667 -24.694  0.00  0.00    +0.142 C 
BRANCH  19  20
ATOM     20  CG  ASP A   3     -17.203  24.517 -23.498  0.00  0.00    +0.367 C 
ATOM     21  OD2 ASP A   3     -17.549  25.556 -22.914  0.00  0.00    -0.246 OA
ATOM     22  OD1 ASP A   3     -17.603  23.402 -23.141  0.00  0.00    -0.246 OA
ENDBRANCH  19  20
ENDBRANCH  16  19
ENDBRANCH  13  16
ENDBRANCH   1  12
BRANCH   1  23
ATOM     23  CB  PHE A   2     -11.874  23.098 -26.876  0.00  0.00    +0.055 C 
BRANCH  23  24
ATOM     24  CG  PHE A   2     -11.665  21.872 -26.019  0.00  0.00    -0.020 A 
ATOM     25  CD2 PHE A   2     -12.135  21.831 -24.716  0.00  0.00    -0.004 A 
ATOM     26  CE2 PHE A   2     -11.959  20.699 -23.931  0.00  0.00    -0.000 A 
ATOM     27  CZ  PHE A   2     -11.294  19.591 -24.449  0.00  0.00    -0.000 A 
ATOM     28  CE1 PHE A   2     -10.824  19.624 -25.749  0.00  0.00    -0.000 A 
ATOM     29  CD1 PHE A   2     -11.015  20.756 -26.528  0.00  0.00    -0.004 A 
ENDBRANCH  23  24
ENDBRANCH   1  23
TORSDOF 12
REMARK  Name = ../refined-set-2016/4yo8/4yo8_pocket.pdb
REMARK  219 active torsions:
REMARK  status: ('A' for Active; 'I' for Inactive)
REMARK    1  A    between atoms: _1  and  _3
REMARK    2  A    between atoms: _3  and  _4
REMARK    3  A    between atoms: _6  and  _8
REMARK    4  A    between atoms: _8  and  _9
REMARK    5  A    between atoms: _12  and  _14
REMARK    6  A    between atoms: _14  and  _15
REMARK    7  A    between atoms: _14  and  _17
REMARK    8  A    between atoms: _17  and  _18
REMARK    9  A    between atoms: _18  and  _19
REMARK   10  A    between atoms: _21  and  _23
REMARK   11  A    between atoms: _23  and  _24
REMARK   12  A    between atoms: _23  and  _26
REMARK   13  A    between atoms: _26  and  _27
REMARK   14  A    between atoms: _27  and  _28
REMARK   15  A    between atoms: _31  and  _33
REMARK   16  A    between atoms: _33  and  _34
REMARK   17  A    between atoms: _33  and  _36
REMARK   18  A    between atoms: _36  and  _37
REMARK   19  A    between atoms: _39  and  _41
REMARK   20  A    between atoms: _41  and  _42
REMARK   21  A    between atoms: _41  and  _44
REMARK   22  A    between atoms: _44  and  _45
REMARK   23  A    between atoms: _45  and  _46
REMARK   24  A    between atoms: _46  and  _47
REMARK   25  A    between atoms: _47  and  _48
REMARK   26  A    between atoms: _52  and  _54
REMARK   27  A    between atoms: _54  and  _55
REMARK   28  A    between atoms: _54  and  _57
REMARK   29  A    between atoms: _57  and  _58
REMARK   30  A    between atoms: _61  and  _63
REMARK   31  A    between atoms: _63  and  _64
REMARK   32  A    between atoms: _66  and  _68
REMARK   33  A    between atoms: _68  and  _69
REMARK   34  A    between atoms: _68  and  _71
REMARK   35  A    between atoms: _71  and  _72
REMARK   36  A    between atoms: _72  and  _73
REMARK   37  A    between atoms: _73  and  _74
REMARK   38  A    between atoms: _74  and  _75
REMARK   39  A    between atoms: _79  and  _81
REMARK   40  A    between atoms: _81  and  _82
REMARK   41  A    between atoms: _81  and  _84
REMARK   42  A    between atoms: _84  and  _85
REMARK   43  A    between atoms: _91  and  _93
REMARK   44  A    between atoms: _93  and  _94
REMARK   45  A    between atoms: _96  and  _98
REMARK   46  A    between atoms: _98  and  _99
REMARK   47  A    between atoms: _98  and  _101
REMARK   48  A    between atoms: _104  and  _106
REMARK   49  A    between atoms: _106  and  _107
REMARK   50  A    between atoms: _110  and  _112
REMARK   51  A    between atoms: _112  and  _113
REMARK   52  A    between atoms: _115  and  _117
REMARK   53  A    between atoms: _117  and  _118
REMARK   54  A    between atoms: _117  and  _120
REMARK   55  A    between atoms: _120  and  _121
REMARK   56  A    between atoms: _123  and  _125
REMARK   57  A    between atoms: _125  and  _126
REMARK   58  A    between atoms: _125  and  _128
REMARK   59  A    between atoms: _128  and  _129
REMARK   60  A    between atoms: _132  and  _134
REMARK   61  A    between atoms: _134  and  _135
REMARK   62  A    between atoms: _134  and  _137
REMARK   63  A    between atoms: _137  and  _138
REMARK   64  A    between atoms: _143  and  _145
REMARK   65  A    between atoms: _145  and  _146
REMARK   66  A    between atoms: _149  and  _151
REMARK   67  A    between atoms: _151  and  _152
REMARK   68  A    between atoms: _151  and  _154
REMARK   69  A    between atoms: _154  and  _155
REMARK   70  A    between atoms: _157  and  _159
REMARK   71  A    between atoms: _159  and  _160
REMARK   72  A    between atoms: _162  and  _164
REMARK   73  A    between atoms: _164  and  _165
REMARK   74  A    between atoms: _164  and  _167
REMARK   75  A    between atoms: _167  and  _168
REMARK   76  A    between atoms: _171  and  _173
REMARK   77  A    between atoms: _173  and  _174
REMARK   78  A    between atoms: _173  and  _176
REMARK   79  A    between atoms: _176  and  _177
REMARK   80  A    between atoms: _177  and  _178
REMARK   81  A    between atoms: _183  and  _185
REMARK   82  A    between atoms: _185  and  _186
REMARK   83  A    between atoms: _185  and  _188
REMARK   84  A    between atoms: _188  and  _189
REMARK   85  A    between atoms: _195  and  _197
REMARK   86  A    between atoms: _197  and  _198
REMARK   87  A    between atoms: _197  and  _200
REMARK   88  A    between atoms: _203  and  _205
REMARK   89  A    between atoms: _205  and  _206
REMARK   90  A    between atoms: _205  and  _208
REMARK   91  A    between atoms: _208  and  _209
REMARK   92  A    between atoms: _214  and  _216
REMARK   93  A    between atoms: _216  and  _217
REMARK   94  A    between atoms: _216  and  _219
REMARK   95  A    between atoms: _219  and  _220
REMARK   96  A    between atoms: _222  and  _224
REMARK   97  A    between atoms: _224  and  _225
REMARK   98  A    between atoms: _224  and  _227
REMARK   99  A    between atoms: _227  and  _228
REMARK  100  A    between atoms: _228  and  _229
REMARK  101  A    between atoms: _229  and  _230
REMARK  102  A    between atoms: _230  and  _231
REMARK  103  A    between atoms: _235  and  _237
REMARK  104  A    between atoms: _237  and  _238
REMARK  105  A    between atoms: _237  and  _240
REMARK  106  A    between atoms: _240  and  _241
REMARK  107  A    between atoms: _244  and  _246
REMARK  108  A    between atoms: _246  and  _247
REMARK  109  A    between atoms: _250  and  _252
REMARK  110  A    between atoms: _252  and  _253
REMARK  111  A    between atoms: _252  and  _255
REMARK  112  A    between atoms: _258  and  _260
REMARK  113  A    between atoms: _260  and  _261
REMARK  114  A    between atoms: _260  and  _263
REMARK  115  A    between atoms: _263  and  _264
REMARK  116  A    between atoms: _264  and  _265
REMARK  117  A    between atoms: _268  and  _270
REMARK  118  A    between atoms: _270  and  _271
REMARK  119  A    between atoms: _270  and  _273
REMARK  120  A    between atoms: _273  and  _274
REMARK  121  A    between atoms: _274  and  _275
REMARK  122  A    between atoms: _277  and  _279
REMARK  123  A    between atoms: _279  and  _280
REMARK  124  A    between atoms: _279  and  _282
REMARK  125  A    between atoms: _282  and  _283
REMARK  126  A    between atoms: _283  and  _284
REMARK  127  A    between atoms: _287  and  _289
REMARK  128  A    between atoms: _289  and  _290
REMARK  129  A    between atoms: _292  and  _294
REMARK  130  A    between atoms: _294  and  _295
REMARK  131  A    between atoms: _294  and  _297
REMARK  132  A    between atoms: _297  and  _298
REMARK  133  A    between atoms: _298  and  _299
REMARK  134  A    between atoms: _299  and  _300
REMARK  135  A    between atoms: _309  and  _311
REMARK  136  A    between atoms: _311  and  _312
REMARK  137  A    between atoms: _311  and  _314
REMARK  138  A    between atoms: _314  and  _315
REMARK  139  A    between atoms: _317  and  _319
REMARK  140  A    between atoms: _319  and  _320
REMARK  141  A    between atoms: _319  and  _322
REMARK  142  A    between atoms: _322  and  _323
REMARK  143  A    between atoms: _326  and  _328
REMARK  144  A    between atoms: _328  and  _329
REMARK  145  A    between atoms: _328  and  _331
REMARK  146  A    between atoms: _331  and  _332
REMARK  147  A    between atoms: _334  and  _336
REMARK  148  A    between atoms: _336  and  _337
REMARK  149  A    between atoms: _336  and  _339
REMARK  150  A    between atoms: _339  and  _340
REMARK  151  A    between atoms: _343  and  _345
REMARK  152  A    between atoms: _345  and  _346
REMARK  153  A    between atoms: _345  and  _348
REMARK  154  A    between atoms: _348  and  _349
REMARK  155  A    between atoms: _354  and  _356
REMARK  156  A    between atoms: _356  and  _357
REMARK  157  A    between atoms: _360  and  _362
REMARK  158  A    between atoms: _362  and  _363
REMARK  159  A    between atoms: _362  and  _365
REMARK  160  A    between atoms: _365  and  _366
REMARK  161  A    between atoms: _369  and  _371
REMARK  162  A    between atoms: _371  and  _372
REMARK  163  A    between atoms: _375  and  _377
REMARK  164  A    between atoms: _377  and  _378
REMARK  165  A    between atoms: _380  and  _382
REMARK  166  A    between atoms: _382  and  _383
REMARK  167  A    between atoms: _382  and  _385
REMARK  168  A    between atoms: _385  and  _386
REMARK  169  A    between atoms: _388  and  _390
REMARK  170  A    between atoms: _390  and  _391
REMARK  171  A    between atoms: _390  and  _393
REMARK  172  A    between atoms: _393  and  _394
REMARK  173  A    between atoms: _400  and  _402
REMARK  174  A    between atoms: _402  and  _403
REMARK  175  A    between atoms: _402  and  _405
REMARK  176  A    between atoms: _405  and  _406
REMARK  177  A    between atoms: _409  and  _411
REMARK  178  A    between atoms: _411  and  _412
REMARK  179  A    between atoms: _411  and  _414
REMARK  180  A    between atoms: _414  and  _415
REMARK  181  A    between atoms: _418  and  _420
REMARK  182  A    between atoms: _420  and  _421
REMARK  183  A    between atoms: _420  and  _423
REMARK  184  A    between atoms: _423  and  _424
REMARK  185  A    between atoms: _426  and  _428
REMARK  186  A    between atoms: _428  and  _429
REMARK  187  A    between atoms: _428  and  _431
REMARK  188  A    between atoms: _431  and  _432
REMARK  189  A    between atoms: _435  and  _437
REMARK  190  A    between atoms: _437  and  _438
REMARK  191  A    between atoms: _437  and  _440
REMARK  192  A    between atoms: _440  and  _441
REMARK  193  A    between atoms: _444  and  _446
REMARK  194  A    between atoms: _446  and  _447
REMARK  195  A    between atoms: _446  and  _449
REMARK  196  A    between atoms: _449  and  _450
REMARK  197  A    between atoms: _452  and  _454
REMARK  198  A    between atoms: _454  and  _455
REMARK  199  A    between atoms: _458  and  _460
REMARK  200  A    between atoms: _460  and  _461
REMARK  201  A    between atoms: _460  and  _463
REMARK  202  A    between atoms: _463  and  _464
REMARK  203  A    between atoms: _470  and  _472
REMARK  204  A    between atoms: _472  and  _473
REMARK  205  A    between atoms: _472  and  _475
REMARK  206  A    between atoms: _475  and  _476
REMARK  207  A    between atoms: _479  and  _481
REMARK  208  A    between atoms: _481  and  _482
REMARK  209  A    between atoms: _481  and  _484
REMARK  210  A    between atoms: _484  and  _485
REMARK  211  A    between atoms: _490  and  _492
REMARK  212  A    between atoms: _492  and  _493
REMARK  213  A    between atoms: _492  and  _495
REMARK  214  A    between atoms: _495  and  _496
REMARK  215  A    between atoms: _502  and  _504
REMARK  216  A    between atoms: _504  and  _505
REMARK  217  A    between atoms: _504  and  _507
REMARK  218  A    between atoms: _507  and  _508
REMARK  219  A    between atoms: _512  and  _513
REMARK                            x       y       z     vdW  Elec       q    Type
REMARK                         _______ _______ _______ _____ _____    ______ ____
ROOT
ATOM      1  CA  LEU A   1     -15.483  18.057 -27.599  0.00  0.00    +0.133 C 
ENDROOT
BRANCH   1   2
ATOM      2  N   LEU A   1     -16.062  19.190 -28.323  0.00  0.00    -0.239 NA
ATOM      3  H   LEU A   1     -16.236  20.080 -27.815  0.00  0.00    +0.142 HD
ENDBRANCH   1   2
BRANCH   1   4
ATOM      4  C   LEU A   1     -16.251  16.744 -27.811  0.00  0.00    +0.224 C 
ATOM      5  O   LEU A   1     -15.656  15.714 -28.133  0.00  0.00    -0.287 OA
ENDBRANCH   1   4
BRANCH   1   6
ATOM      6  CB  LEU A   1     -15.375  18.361 -26.102  0.00  0.00    +0.025 C 
BRANCH   6   7
ATOM      7  CG  LEU A   1     -14.960  17.194 -25.167  0.00  0.00    +0.002 C 
ATOM      8  CD2 LEU A   1     -14.801  17.661 -23.728  0.00  0.00    +0.000 C 
ATOM      9  CD1 LEU A   1     -13.667  16.543 -25.634  0.00  0.00    +0.000 C 
ENDBRANCH   6   7
ENDBRANCH   1   6
TORSDOF 4
REMARK  Name = ../refined-set-2016/4yo8/4yo8_pocket.pdb
REMARK  219 active torsions:
REMARK  status: ('A' for Active; 'I' for Inactive)
REMARK    1  A    between atoms: _1  and  _3
REMARK    2  A    between atoms: _3  and  _4
REMARK    3  A    between atoms: _6  and  _8
REMARK    4  A    between atoms: _8  and  _9
REMARK    5  A    between atoms: _12  and  _14
REMARK    6  A    between atoms: _14  and  _15
REMARK    7  A    between atoms: _14  and  _17
REMARK    8  A    between atoms: _17  and  _18
REMARK    9  A    between atoms: _18  and  _19
REMARK   10  A    between atoms: _21  and  _23
REMARK   11  A    between atoms: _23  and  _24
REMARK   12  A    between atoms: _23  and  _26
REMARK   13  A    between atoms: _26  and  _27
REMARK   14  A    between atoms: _27  and  _28
REMARK   15  A    between atoms: _31  and  _33
REMARK   16  A    between atoms: _33  and  _34
REMARK   17  A    between atoms: _33  and  _36
REMARK   18  A    between atoms: _36  and  _37
REMARK   19  A    between atoms: _39  and  _41
REMARK   20  A    between atoms: _41  and  _42
REMARK   21  A    between atoms: _41  and  _44
REMARK   22  A    between atoms: _44  and  _45
REMARK   23  A    between atoms: _45  and  _46
REMARK   24  A    between atoms: _46  and  _47
REMARK   25  A    between atoms: _47  and  _48
REMARK   26  A    between atoms: _52  and  _54
REMARK   27  A    between atoms: _54  and  _55
REMARK   28  A    between atoms: _54  and  _57
REMARK   29  A    between atoms: _57  and  _58
REMARK   30  A    between atoms: _61  and  _63
REMARK   31  A    between atoms: _63  and  _64
REMARK   32  A    between atoms: _66  and  _68
REMARK   33  A    between atoms: _68  and  _69
REMARK   34  A    between atoms: _68  and  _71
REMARK   35  A    between atoms: _71  and  _72
REMARK   36  A    between atoms: _72  and  _73
REMARK   37  A    between atoms: _73  and  _74
REMARK   38  A    between atoms: _74  and  _75
REMARK   39  A    between atoms: _79  and  _81
REMARK   40  A    between atoms: _81  and  _82
REMARK   41  A    between atoms: _81  and  _84
REMARK   42  A    between atoms: _84  and  _85
REMARK   43  A    between atoms: _91  and  _93
REMARK   44  A    between atoms: _93  and  _94
REMARK   45  A    between atoms: _96  and  _98
REMARK   46  A    between atoms: _98  and  _99
REMARK   47  A    between atoms: _98  and  _101
REMARK   48  A    between atoms: _104  and  _106
REMARK   49  A    between atoms: _106  and  _107
REMARK   50  A    between atoms: _110  and  _112
REMARK   51  A    between atoms: _112  and  _113
REMARK   52  A    between atoms: _115  and  _117
REMARK   53  A    between atoms: _117  and  _118
REMARK   54  A    between atoms: _117  and  _120
REMARK   55  A    between atoms: _120  and  _121
REMARK   56  A    between atoms: _123  and  _125
REMARK   57  A    between atoms: _125  and  _126
REMARK   58  A    between atoms: _125  and  _128
REMARK   59  A    between atoms: _128  and  _129
REMARK   60  A    between atoms: _132  and  _134
REMARK   61  A    between atoms: _134  and  _135
REMARK   62  A    between atoms: _134  and  _137
REMARK   63  A    between atoms: _137  and  _138
REMARK   64  A    between atoms: _143  and  _145
REMARK   65  A    between atoms: _145  and  _146
REMARK   66  A    between atoms: _149  and  _151
REMARK   67  A    between atoms: _151  and  _152
REMARK   68  A    between atoms: _151  and  _154
REMARK   69  A    between atoms: _154  and  _155
REMARK   70  A    between atoms: _157  and  _159
REMARK   71  A    between atoms: _159  and  _160
REMARK   72  A    between atoms: _162  and  _164
REMARK   73  A    between atoms: _164  and  _165
REMARK   74  A    between atoms: _164  and  _167
REMARK   75  A    between atoms: _167  and  _168
REMARK   76  A    between atoms: _171  and  _173
REMARK   77  A    between atoms: _173  and  _174
REMARK   78  A    between atoms: _173  and  _176
REMARK   79  A    between atoms: _176  and  _177
REMARK   80  A    between atoms: _177  and  _178
REMARK   81  A    between atoms: _183  and  _185
REMARK   82  A    between atoms: _185  and  _186
REMARK   83  A    between atoms: _185  and  _188
REMARK   84  A    between atoms: _188  and  _189
REMARK   85  A    between atoms: _195  and  _197
REMARK   86  A    between atoms: _197  and  _198
REMARK   87  A    between atoms: _197  and  _200
REMARK   88  A    between atoms: _203  and  _205
REMARK   89  A    between atoms: _205  and  _206
REMARK   90  A    between atoms: _205  and  _208
REMARK   91  A    between atoms: _208  and  _209
REMARK   92  A    between atoms: _214  and  _216
REMARK   93  A    between atoms: _216  and  _217
REMARK   94  A    between atoms: _216  and  _219
REMARK   95  A    between atoms: _219  and  _220
REMARK   96  A    between atoms: _222  and  _224
REMARK   97  A    between atoms: _224  and  _225
REMARK   98  A    between atoms: _224  and  _227
REMARK   99  A    between atoms: _227  and  _228
REMARK  100  A    between atoms: _228  and  _229
REMARK  101  A    between atoms: _229  and  _230
REMARK  102  A    between atoms: _230  and  _231
REMARK  103  A    between atoms: _235  and  _237
REMARK  104  A    between atoms: _237  and  _238
REMARK  105  A    between atoms: _237  and  _240
REMARK  106  A    between atoms: _240  and  _241
REMARK  107  A    between atoms: _244  and  _246
REMARK  108  A    between atoms: _246  and  _247
REMARK  109  A    between atoms: _250  and  _252
REMARK  110  A    between atoms: _252  and  _253
REMARK  111  A    between atoms: _252  and  _255
REMARK  112  A    between atoms: _258  and  _260
REMARK  113  A    between atoms: _260  and  _261
REMARK  114  A    between atoms: _260  and  _263
REMARK  115  A    between atoms: _263  and  _264
REMARK  116  A    between atoms: _264  and  _265
REMARK  117  A    between atoms: _268  and  _270
REMARK  118  A    between atoms: _270  and  _271
REMARK  119  A    between atoms: _270  and  _273
REMARK  120  A    between atoms: _273  and  _274
REMARK  121  A    between atoms: _274  and  _275
REMARK  122  A    between atoms: _277  and  _279
REMARK  123  A    between atoms: _279  and  _280
REMARK  124  A    between atoms: _279  and  _282
REMARK  125  A    between atoms: _282  and  _283
REMARK  126  A    between atoms: _283  and  _284
REMARK  127  A    between atoms: _287  and  _289
REMARK  128  A    between atoms: _289  and  _290
REMARK  129  A    between atoms: _292  and  _294
REMARK  130  A    between atoms: _294  and  _295
REMARK  131  A    between atoms: _294  and  _297
REMARK  132  A    between atoms: _297  and  _298
REMARK  133  A    between atoms: _298  and  _299
REMARK  134  A    between atoms: _299  and  _300
REMARK  135  A    between atoms: _309  and  _311
REMARK  136  A    between atoms: _311  and  _312
REMARK  137  A    between atoms: _311  and  _314
REMARK  138  A    between atoms: _314  and  _315
REMARK  139  A    between atoms: _317  and  _319
REMARK  140  A    between atoms: _319  and  _320
REMARK  141  A    between atoms: _319  and  _322
REMARK  142  A    between atoms: _322  and  _323
REMARK  143  A    between atoms: _326  and  _328
REMARK  144  A    between atoms: _328  and  _329
REMARK  145  A    between atoms: _328  and  _331
REMARK  146  A    between atoms: _331  and  _332
REMARK  147  A    between atoms: _334  and  _336
REMARK  148  A    between atoms: _336  and  _337
REMARK  149  A    between atoms: _336  and  _339
REMARK  150  A    between atoms: _339  and  _340
REMARK  151  A    between atoms: _343  and  _345
REMARK  152  A    between atoms: _345  and  _346
REMARK  153  A    between atoms: _345  and  _348
REMARK  154  A    between atoms: _348  and  _349
REMARK  155  A    between atoms: _354  and  _356
REMARK  156  A    between atoms: _356  and  _357
REMARK  157  A    between atoms: _360  and  _362
REMARK  158  A    between atoms: _362  and  _363
REMARK  159  A    between atoms: _362  and  _365
REMARK  160  A    between atoms: _365  and  _366
REMARK  161  A    between atoms: _369  and  _371
REMARK  162  A    between atoms: _371  and  _372
REMARK  163  A    between atoms: _375  and  _377
REMARK  164  A    between atoms: _377  and  _378
REMARK  165  A    between atoms: _380  and  _382
REMARK  166  A    between atoms: _382  and  _383
REMARK  167  A    between atoms: _382  and  _385
REMARK  168  A    between atoms: _385  and  _386
REMARK  169  A    between atoms: _388  and  _390
REMARK  170  A    between atoms: _390  and  _391
REMARK  171  A    between atoms: _390  and  _393
REMARK  172  A    between atoms: _393  and  _394
REMARK  173  A    between atoms: _400  and  _402
REMARK  174  A    between atoms: _402  and  _403
REMARK  175  A    between atoms: _402  and  _405
REMARK  176  A    between atoms: _405  and  _406
REMARK  177  A    between atoms: _409  and  _411
REMARK  178  A    between atoms: _411  and  _412
REMARK  179  A    between atoms: _411  and  _414
REMARK  180  A    between atoms: _414  and  _415
REMARK  181  A    between atoms: _418  and  _420
REMARK  182  A    between atoms: _420  and  _421
REMARK  183  A    between atoms: _420  and  _423
REMARK  184  A    between atoms: _423  and  _424
REMARK  185  A    between atoms: _426  and  _428
REMARK  186  A    between atoms: _428  and  _429
REMARK  187  A    between atoms: _428  and  _431
REMARK  188  A    between atoms: _431  and  _432
REMARK  189  A    between atoms: _435  and  _437
REMARK  190  A    between atoms: _437  and  _438
REMARK  191  A    between atoms: _437  and  _440
REMARK  192  A    between atoms: _440  and  _441
REMARK  193  A    between atoms: _444  and  _446
REMARK  194  A    between atoms: _446  and  _447
REMARK  195  A    between atoms: _446  and  _449
REMARK  196  A    between atoms: _449  and  _450
REMARK  197  A    between atoms: _452  and  _454
REMARK  198  A    between atoms: _454  and  _455
REMARK  199  A    between atoms: _458  and  _460
REMARK  200  A    between atoms: _460  and  _461
REMARK  201  A    between atoms: _460  and  _463
REMARK  202  A    between atoms: _463  and  _464
REMARK  203  A    between atoms: _470  and  _472
REMARK  204  A    between atoms: _472  and  _473
REMARK  205  A    between atoms: _472  and  _475
REMARK  206  A    between atoms: _475  and  _476
REMARK  207  A    between atoms: _479  and  _481
REMARK  208  A    between atoms: _481  and  _482
REMARK  209  A    between atoms: _481  and  _484
REMARK  210  A    between atoms: _484  and  _485
REMARK  211  A    between atoms: _490  and  _492
REMARK  212  A    between atoms: _492  and  _493
REMARK  213  A    between atoms: _492  and  _495
REMARK  214  A    between atoms: _495  and  _496
REMARK  215  A    between atoms: _502  and  _504
REMARK  216  A    between atoms: _504  and  _505
REMARK  217  A    between atoms: _504  and  _507
REMARK  218  A    between atoms: _507  and  _508
REMARK  219  A    between atoms: _512  and  _513
REMARK                            x       y       z     vdW  Elec       q    Type
REMARK                         _______ _______ _______ _____ _____    ______ ____
ROOT
ATOM      1  CA  SER A   1     -14.854  15.121 -32.023  0.00  0.00    +0.163 C 
ENDROOT
BRANCH   1   2
ATOM      2  N   SER A   1     -16.232  15.467 -31.619  0.00  0.00    -0.237 NA
ATOM      3  H   SER A   1     -16.419  16.380 -31.157  0.00  0.00    +0.142 HD
ENDBRANCH   1   2
BRANCH   1   4
ATOM      4  CB  SER A   1     -14.391  13.853 -31.294  0.00  0.00    +0.227 C 
ATOM      5  OG  SER A   1     -13.798  12.972 -31.902  0.00  0.00    -0.287 OA
ENDBRANCH   1   4
BRANCH   1   6
ATOM      6  C   SER A   1     -13.883  16.277 -31.794  0.00  0.00    +0.162 C 
BRANCH   6   7
ATOM      7  O   SER A   1     -14.120  17.331 -32.717  0.00  0.00    -0.380 OA
ATOM      8  H   SER A   1     -13.479  18.066 -32.548  0.00  0.00    +0.211 HD
ENDBRANCH   6   7
ENDBRANCH   1   6
TORSDOF 4
REMARK  Name = ../refined-set-2016/4yo8/4yo8_pocket.pdb
REMARK  219 active torsions:
REMARK  status: ('A' for Active; 'I' for Inactive)
REMARK    1  A    between atoms: _1  and  _3
REMARK    2  A    between atoms: _3  and  _4
REMARK    3  A    between atoms: _6  and  _8
REMARK    4  A    between atoms: _8  and  _9
REMARK    5  A    between atoms: _12  and  _14
REMARK    6  A    between atoms: _14  and  _15
REMARK    7  A    between atoms: _14  and  _17
REMARK    8  A    between atoms: _17  and  _18
REMARK    9  A    between atoms: _18  and  _19
REMARK   10  A    between atoms: _21  and  _23
REMARK   11  A    between atoms: _23  and  _24
REMARK   12  A    between atoms: _23  and  _26
REMARK   13  A    between atoms: _26  and  _27
REMARK   14  A    between atoms: _27  and  _28
REMARK   15  A    between atoms: _31  and  _33
REMARK   16  A    between atoms: _33  and  _34
REMARK   17  A    between atoms: _33  and  _36
REMARK   18  A    between atoms: _36  and  _37
REMARK   19  A    between atoms: _39  and  _41
REMARK   20  A    between atoms: _41  and  _42
REMARK   21  A    between atoms: _41  and  _44
REMARK   22  A    between atoms: _44  and  _45
REMARK   23  A    between atoms: _45  and  _46
REMARK   24  A    between atoms: _46  and  _47
REMARK   25  A    between atoms: _47  and  _48
REMARK   26  A    between atoms: _52  and  _54
REMARK   27  A    between atoms: _54  and  _55
REMARK   28  A    between atoms: _54  and  _57
REMARK   29  A    between atoms: _57  and  _58
REMARK   30  A    between atoms: _61  and  _63
REMARK   31  A    between atoms: _63  and  _64
REMARK   32  A    between atoms: _66  and  _68
REMARK   33  A    between atoms: _68  and  _69
REMARK   34  A    between atoms: _68  and  _71
REMARK   35  A    between atoms: _71  and  _72
REMARK   36  A    between atoms: _72  and  _73
REMARK   37  A    between atoms: _73  and  _74
REMARK   38  A    between atoms: _74  and  _75
REMARK   39  A    between atoms: _79  and  _81
REMARK   40  A    between atoms: _81  and  _82
REMARK   41  A    between atoms: _81  and  _84
REMARK   42  A    between atoms: _84  and  _85
REMARK   43  A    between atoms: _91  and  _93
REMARK   44  A    between atoms: _93  and  _94
REMARK   45  A    between atoms: _96  and  _98
REMARK   46  A    between atoms: _98  and  _99
REMARK   47  A    between atoms: _98  and  _101
REMARK   48  A    between atoms: _104  and  _106
REMARK   49  A    between atoms: _106  and  _107
REMARK   50  A    between atoms: _110  and  _112
REMARK   51  A    between atoms: _112  and  _113
REMARK   52  A    between atoms: _115  and  _117
REMARK   53  A    between atoms: _117  and  _118
REMARK   54  A    between atoms: _117  and  _120
REMARK   55  A    between atoms: _120  and  _121
REMARK   56  A    between atoms: _123  and  _125
REMARK   57  A    between atoms: _125  and  _126
REMARK   58  A    between atoms: _125  and  _128
REMARK   59  A    between atoms: _128  and  _129
REMARK   60  A    between atoms: _132  and  _134
REMARK   61  A    between atoms: _134  and  _135
REMARK   62  A    between atoms: _134  and  _137
REMARK   63  A    between atoms: _137  and  _138
REMARK   64  A    between atoms: _143  and  _145
REMARK   65  A    between atoms: _145  and  _146
REMARK   66  A    between atoms: _149  and  _151
REMARK   67  A    between atoms: _151  and  _152
REMARK   68  A    between atoms: _151  and  _154
REMARK   69  A    between atoms: _154  and  _155
REMARK   70  A    between atoms: _157  and  _159
REMARK   71  A    between atoms: _159  and  _160
REMARK   72  A    between atoms: _162  and  _164
REMARK   73  A    between atoms: _164  and  _165
REMARK   74  A    between atoms: _164  and  _167
REMARK   75  A    between atoms: _167  and  _168
REMARK   76  A    between atoms: _171  and  _173
REMARK   77  A    between atoms: _173  and  _174
REMARK   78  A    between atoms: _173  and  _176
REMARK   79  A    between atoms: _176  and  _177
REMARK   80  A    between atoms: _177  and  _178
REMARK   81  A    between atoms: _183  and  _185
REMARK   82  A    between atoms: _185  and  _186
REMARK   83  A    between atoms: _185  and  _188
REMARK   84  A    between atoms: _188  and  _189
REMARK   85  A    between atoms: _195  and  _197
REMARK   86  A    between atoms: _197  and  _198
REMARK   87  A    between atoms: _197  and  _200
REMARK   88  A    between atoms: _203  and  _205
REMARK   89  A    between atoms: _205  and  _206
REMARK   90  A    between atoms: _205  and  _208
REMARK   91  A    between atoms: _208  and  _209
REMARK   92  A    between atoms: _214  and  _216
REMARK   93  A    between atoms: _216  and  _217
REMARK   94  A    between atoms: _216  and  _219
REMARK   95  A    between atoms: _219  and  _220
REMARK   96  A    between atoms: _222  and  _224
REMARK   97  A    between atoms: _224  and  _225
REMARK   98  A    between atoms: _224  and  _227
REMARK   99  A    between atoms: _227  and  _228
REMARK  100  A    between atoms: _228  and  _229
REMARK  101  A    between atoms: _229  and  _230
REMARK  102  A    between atoms: _230  and  _231
REMARK  103  A    between atoms: _235  and  _237
REMARK  104  A    between atoms: _237  and  _238
REMARK  105  A    between atoms: _237  and  _240
REMARK  106  A    between atoms: _240  and  _241
REMARK  107  A    between atoms: _244  and  _246
REMARK  108  A    between atoms: _246  and  _247
REMARK  109  A    between atoms: _250  and  _252
REMARK  110  A    between atoms: _252  and  _253
REMARK  111  A    between atoms: _252  and  _255
REMARK  112  A    between atoms: _258  and  _260
REMARK  113  A    between atoms: _260  and  _261
REMARK  114  A    between atoms: _260  and  _263
REMARK  115  A    between atoms: _263  and  _264
REMARK  116  A    between atoms: _264  and  _265
REMARK  117  A    between atoms: _268  and  _270
REMARK  118  A    between atoms: _270  and  _271
REMARK  119  A    between atoms: _270  and  _273
REMARK  120  A    between atoms: _273  and  _274
REMARK  121  A    between atoms: _274  and  _275
REMARK  122  A    between atoms: _277  and  _279
REMARK  123  A    between atoms: _279  and  _280
REMARK  124  A    between atoms: _279  and  _282
REMARK  125  A    between atoms: _282  and  _283
REMARK  126  A    between atoms: _283  and  _284
REMARK  127  A    between atoms: _287  and  _289
REMARK  128  A    between atoms: _289  and  _290
REMARK  129  A    between atoms: _292  and  _294
REMARK  130  A    between atoms: _294  and  _295
REMARK  131  A    between atoms: _294  and  _297
REMARK  132  A    between atoms: _297  and  _298
REMARK  133  A    between atoms: _298  and  _299
REMARK  134  A    between atoms: _299  and  _300
REMARK  135  A    between atoms: _309  and  _311
REMARK  136  A    between atoms: _311  and  _312
REMARK  137  A    between atoms: _311  and  _314
REMARK  138  A    between atoms: _314  and  _315
REMARK  139  A    between atoms: _317  and  _319
REMARK  140  A    between atoms: _319  and  _320
REMARK  141  A    between atoms: _319  and  _322
REMARK  142  A    between atoms: _322  and  _323
REMARK  143  A    between atoms: _326  and  _328
REMARK  144  A    between atoms: _328  and  _329
REMARK  145  A    between atoms: _328  and  _331
REMARK  146  A    between atoms: _331  and  _332
REMARK  147  A    between atoms: _334  and  _336
REMARK  148  A    between atoms: _336  and  _337
REMARK  149  A    between atoms: _336  and  _339
REMARK  150  A    between atoms: _339  and  _340
REMARK  151  A    between atoms: _343  and  _345
REMARK  152  A    between atoms: _345  and  _346
REMARK  153  A    between atoms: _345  and  _348
REMARK  154  A    between atoms: _348  and  _349
REMARK  155  A    between atoms: _354  and  _356
REMARK  156  A    between atoms: _356  and  _357
REMARK  157  A    between atoms: _360  and  _362
REMARK  158  A    between atoms: _362  and  _363
REMARK  159  A    between atoms: _362  and  _365
REMARK  160  A    between atoms: _365  and  _366
REMARK  161  A    between atoms: _369  and  _371
REMARK  162  A    between atoms: _371  and  _372
REMARK  163  A    between atoms: _375  and  _377
REMARK  164  A    between atoms: _377  and  _378
REMARK  165  A    between atoms: _380  and  _382
REMARK  166  A    between atoms: _382  and  _383
REMARK  167  A    between atoms: _382  and  _385
REMARK  168  A    between atoms: _385  and  _386
REMARK  169  A    between atoms: _388  and  _390
REMARK  170  A    between atoms: _390  and  _391
REMARK  171  A    between atoms: _390  and  _393
REMARK  172  A    between atoms: _393  and  _394
REMARK  173  A    between atoms: _400  and  _402
REMARK  174  A    between atoms: _402  and  _403
REMARK  175  A    between atoms: _402  and  _405
REMARK  176  A    between atoms: _405  and  _406
REMARK  177  A    between atoms: _409  and  _411
REMARK  178  A    between atoms: _411  and  _412
REMARK  179  A    between atoms: _411  and  _414
REMARK  180  A    between atoms: _414  and  _415
REMARK  181  A    between atoms: _418  and  _420
REMARK  182  A    between atoms: _420  and  _421
REMARK  183  A    between atoms: _420  and  _423
REMARK  184  A    between atoms: _423  and  _424
REMARK  185  A    between atoms: _426  and  _428
REMARK  186  A    between atoms: _428  and  _429
REMARK  187  A    between atoms: _428  and  _431
REMARK  188  A    between atoms: _431  and  _432
REMARK  189  A    between atoms: _435  and  _437
REMARK  190  A    between atoms: _437  and  _438
REMARK  191  A    between atoms: _437  and  _440
REMARK  192  A    between atoms: _440  and  _441
REMARK  193  A    between atoms: _444  and  _446
REMARK  194  A    between atoms: _446  and  _447
REMARK  195  A    between atoms: _446  and  _449
REMARK  196  A    between atoms: _449  and  _450
REMARK  197  A    between atoms: _452  and  _454
REMARK  198  A    between atoms: _454  and  _455
REMARK  199  A    between atoms: _458  and  _460
REMARK  200  A    between atoms: _460  and  _461
REMARK  201  A    between atoms: _460  and  _463
REMARK  202  A    between atoms: _463  and  _464
REMARK  203  A    between atoms: _470  and  _472
REMARK  204  A    between atoms: _472  and  _473
REMARK  205  A    between atoms: _472  and  _475
REMARK  206  A    between atoms: _475  and  _476
REMARK  207  A    between atoms: _479  and  _481
REMARK  208  A    between atoms: _481  and  _482
REMARK  209  A    between atoms: _481  and  _484
REMARK  210  A    between atoms: _484  and  _485
REMARK  211  A    between atoms: _490  and  _492
REMARK  212  A    between atoms: _492  and  _493
REMARK  213  A    between atoms: _492  and  _495
REMARK  214  A    between atoms: _495  and  _496
REMARK  215  A    between atoms: _502  and  _504
REMARK  216  A    between atoms: _504  and  _505
REMARK  217  A    between atoms: _504  and  _507
REMARK  218  A    between atoms: _507  and  _508
REMARK  219  A    between atoms: _512  and  _513
REMARK                            x       y       z     vdW  Elec       q    Type
REMARK                         _______ _______ _______ _____ _____    ______ ____
ROOT
ATOM      1  C   ALA A   4      -9.166  28.838 -20.325  0.00  0.00    +0.241 C 
ATOM      2  N   PHE A   5      -9.232  27.902 -19.381  0.00  0.00    -0.297 N 
ATOM      3  H   PHE A   5      -8.362  27.430 -19.062  0.00  0.00    +0.150 HD
ATOM      4  O   ALA A   4     -10.164  29.317 -20.834  0.00  0.00    -0.273 OA
ENDROOT
BRANCH   1   5
ATOM      5  CA  ALA A   4      -7.796  29.297 -20.792  0.00  0.00    +0.149 C 
ATOM      6  CB  ALA A   4      -7.413  28.590 -22.080  0.00  0.00    +0.031 C 
BRANCH   5   9
ATOM      7  C   SER A   3      -6.907  29.596 -18.559  0.00  0.00    +0.243 C 
ATOM      8  O   SER A   3      -7.849  30.299 -18.242  0.00  0.00    -0.273 OA
ATOM      9  N   ALA A   4      -6.782  29.080 -19.777  0.00  0.00    -0.297 N 
ATOM     10  H   ALA A   4      -5.943  28.511 -20.007  0.00  0.00    +0.150 HD
BRANCH   7  11
ATOM     11  CA  SER A   3      -5.837  29.248 -17.546  0.00  0.00    +0.178 C 
BRANCH  11  14
ATOM     12  C   LEU A   2      -5.807  26.840 -17.957  0.00  0.00    +0.241 C 
ATOM     13  O   LEU A   2      -7.027  26.783 -17.845  0.00  0.00    -0.273 OA
ATOM     14  N   SER A   3      -5.154  28.001 -17.897  0.00  0.00    -0.295 N 
ATOM     15  H   SER A   3      -4.135  28.021 -18.104  0.00  0.00    +0.150 HD
BRANCH  12  16
ATOM     16  CA  LEU A   2      -4.967  25.553 -18.228  0.00  0.00    +0.149 C 
BRANCH  16  18
ATOM     17  C   ASP A   1      -2.562  25.862 -18.606  0.00  0.00    +0.239 C 
ATOM     18  N   LEU A   2      -3.604  25.750 -17.796  0.00  0.00    -0.297 N 
ATOM     19  H   LEU A   2      -3.427  25.808 -16.773  0.00  0.00    +0.150 HD
ATOM     20  O   ASP A   1      -2.612  25.693 -19.829  0.00  0.00    -0.274 OA
BRANCH  17  21
ATOM     21  CA  ASP A   1      -1.262  26.239 -17.897  0.00  0.00    +0.156 C 
BRANCH  21  22
ATOM     22  N   ASP A   1      -0.439  25.075 -17.601  0.00  0.00    -0.238 NA
ATOM     23  H   ASP A   1      -0.383  24.309 -18.303  0.00  0.00    +0.142 HD
ENDBRANCH  21  22
BRANCH  21  24
ATOM     24  CB  ASP A   1      -0.503  27.242 -18.749  0.00  0.00    +0.140 C 
BRANCH  24  25
ATOM     25  CG  ASP A   1      -1.287  28.528 -18.963  0.00  0.00    +0.367 C 
ATOM     26  OD2 ASP A   1      -2.470  28.588 -18.578  0.00  0.00    -0.246 OA
ATOM     27  OD1 ASP A   1      -0.711  29.478 -19.517  0.00  0.00    -0.246 OA
ENDBRANCH  24  25
ENDBRANCH  21  24
ENDBRANCH  17  21
ENDBRANCH  16  18
BRANCH  16  28
ATOM     28  CB  LEU A   2      -5.538  24.335 -17.476  0.00  0.00    +0.029 C 
BRANCH  28  29
ATOM     29  CG  LEU A   2      -5.512  22.933 -18.149  0.00  0.00    +0.002 C 
ATOM     30  CD2 LEU A   2      -5.480  21.823 -17.131  0.00  0.00    +0.000 C 
ATOM     31  CD1 LEU A   2      -4.381  22.745 -19.129  0.00  0.00    +0.000 C 
ENDBRANCH  28  29
ENDBRANCH  16  28
ENDBRANCH  12  16
ENDBRANCH  11  14
BRANCH  11  32
ATOM     32  CB  SER A   3      -4.841  30.408 -17.421  0.00  0.00    +0.166 C 
BRANCH  32  33
ATOM     33  OG  SER A   3      -4.129  30.588 -18.631  0.00  0.00    -0.380 OA
ATOM     34  H   SER A   3      -3.631  29.760 -18.846  0.00  0.00    +0.211 HD
ENDBRANCH  32  33
ENDBRANCH  11  32
ENDBRANCH   7  11
ENDBRANCH   5   9
ENDBRANCH   1   5
BRANCH   2  35
ATOM     35  CA  PHE A   5     -10.512  27.532 -18.791  0.00  0.00    +0.153 C 
BRANCH  35  36
ATOM     36  C   PHE A   5     -10.603  27.976 -17.331  0.00  0.00    +0.241 C 
ATOM     37  O   PHE A   5     -11.206  27.292 -16.499  0.00  0.00    -0.273 OA
ATOM     38  N   ASP A   6      -9.988  29.126 -17.026  0.00  0.00    -0.297 N 
ATOM     39  H   ASP A   6      -9.466  29.619 -17.779  0.00  0.00    +0.150 HD
BRANCH  38  40
ATOM     40  CA  ASP A   6     -10.010  29.734 -15.677  0.00  0.00    +0.160 C 
BRANCH  40  41
ATOM     41  C   ASP A   6      -9.251  28.970 -14.599  0.00  0.00    +0.241 C 
ATOM     42  O   ASP A   6      -9.371  29.298 -13.413  0.00  0.00    -0.273 OA
ATOM     43  N   HIS A   7      -8.487  27.946 -14.964  0.00  0.00    -0.298 N 
ATOM     44  H   HIS A   7      -8.405  27.677 -15.965  0.00  0.00    +0.150 HD
BRANCH  43  45
ATOM     45  CA  HIS A   7      -7.767  27.209 -13.938  0.00  0.00    +0.143 C 
BRANCH  45  46
ATOM     46  C   HIS A   7      -6.552  27.997 -13.520  0.00  0.00    +0.227 C 
ATOM     47  O   HIS A   7      -5.830  28.511 -14.373  0.00  0.00    -0.286 OA
ENDBRANCH  45  46
BRANCH  45  48
ATOM     48  CB  HIS A   7      -7.324  25.836 -14.433  0.00  0.00    +0.075 C 
BRANCH  48  49
ATOM     49  CG  HIS A   7      -8.455  24.968 -14.847  0.00  0.00    +0.082 A 
ATOM     50  ND1 HIS A   7      -9.230  24.284 -13.943  0.00  0.00    -0.227 NA
ATOM     51  CE1 HIS A   7     -10.167  23.616 -14.594  0.00  0.00    +0.199 A 
ATOM     52  NE2 HIS A   7     -10.014  23.832 -15.889  0.00  0.00    -0.221 NA
ATOM     53  CD2 HIS A   7      -8.956  24.682 -16.072  0.00  0.00    +0.115 A 
ENDBRANCH  48  49
ENDBRANCH  45  48
ENDBRANCH  43  45
ENDBRANCH  40  41
BRANCH  40  54
ATOM     54  CB  ASP A   6     -11.452  29.939 -15.158  0.00  0.00    +0.143 C 
BRANCH  54  55
ATOM     55  CG  ASP A   6     -12.328  30.690 -16.127  0.00  0.00    +0.367 C 
ATOM     56  OD2 ASP A   6     -13.527  30.336 -16.220  0.00  0.00    -0.246 OA
ATOM     57  OD1 ASP A   6     -11.825  31.625 -16.787  0.00  0.00    -0.246 OA
ENDBRANCH  54  55
ENDBRANCH  40  54
ENDBRANCH  38  40
ENDBRANCH  35  36
BRANCH  35  58
ATOM     58  CB  PHE A   5     -10.726  26.031 -18.947  0.00  0.00    +0.055 C 
BRANCH  58  59
ATOM     59  CG  PHE A   5     -10.732  25.579 -20.380  0.00  0.00    -0.020 A 
ATOM     60  CD2 PHE A   5      -9.556  25.267 -21.024  0.00  0.00    -0.004 A 
ATOM     61  CE2 PHE A   5      -9.556  24.862 -22.347  0.00  0.00    -0.000 A 
ATOM     62  CZ  PHE A   5     -10.725  24.776 -23.045  0.00  0.00    -0.000 A 
ATOM     63  CE1 PHE A   5     -11.915  25.089 -22.421  0.00  0.00    -0.000 A 
ATOM     64  CD1 PHE A   5     -11.918  25.482 -21.091  0.00  0.00    -0.004 A 
ENDBRANCH  58  59
ENDBRANCH  35  58
ENDBRANCH   2  35
TORSDOF 26
REMARK  Name = ../refined-set-2016/4yo8/4yo8_pocket.pdb
REMARK  219 active torsions:
REMARK  status: ('A' for Active; 'I' for Inactive)
REMARK    1  A    between atoms: _1  and  _3
REMARK    2  A    between atoms: _3  and  _4
REMARK    3  A    between atoms: _6  and  _8
REMARK    4  A    between atoms: _8  and  _9
REMARK    5  A    between atoms: _12  and  _14
REMARK    6  A    between atoms: _14  and  _15
REMARK    7  A    between atoms: _14  and  _17
REMARK    8  A    between atoms: _17  and  _18
REMARK    9  A    between atoms: _18  and  _19
REMARK   10  A    between atoms: _21  and  _23
REMARK   11  A    between atoms: _23  and  _24
REMARK   12  A    between atoms: _23  and  _26
REMARK   13  A    between atoms: _26  and  _27
REMARK   14  A    between atoms: _27  and  _28
REMARK   15  A    between atoms: _31  and  _33
REMARK   16  A    between atoms: _33  and  _34
REMARK   17  A    between atoms: _33  and  _36
REMARK   18  A    between atoms: _36  and  _37
REMARK   19  A    between atoms: _39  and  _41
REMARK   20  A    between atoms: _41  and  _42
REMARK   21  A    between atoms: _41  and  _44
REMARK   22  A    between atoms: _44  and  _45
REMARK   23  A    between atoms: _45  and  _46
REMARK   24  A    between atoms: _46  and  _47
REMARK   25  A    between atoms: _47  and  _48
REMARK   26  A    between atoms: _52  and  _54
REMARK   27  A    between atoms: _54  and  _55
REMARK   28  A    between atoms: _54  and  _57
REMARK   29  A    between atoms: _57  and  _58
REMARK   30  A    between atoms: _61  and  _63
REMARK   31  A    between atoms: _63  and  _64
REMARK   32  A    between atoms: _66  and  _68
REMARK   33  A    between atoms: _68  and  _69
REMARK   34  A    between atoms: _68  and  _71
REMARK   35  A    between atoms: _71  and  _72
REMARK   36  A    between atoms: _72  and  _73
REMARK   37  A    between atoms: _73  and  _74
REMARK   38  A    between atoms: _74  and  _75
REMARK   39  A    between atoms: _79  and  _81
REMARK   40  A    between atoms: _81  and  _82
REMARK   41  A    between atoms: _81  and  _84
REMARK   42  A    between atoms: _84  and  _85
REMARK   43  A    between atoms: _91  and  _93
REMARK   44  A    between atoms: _93  and  _94
REMARK   45  A    between atoms: _96  and  _98
REMARK   46  A    between atoms: _98  and  _99
REMARK   47  A    between atoms: _98  and  _101
REMARK   48  A    between atoms: _104  and  _106
REMARK   49  A    between atoms: _106  and  _107
REMARK   50  A    between atoms: _110  and  _112
REMARK   51  A    between atoms: _112  and  _113
REMARK   52  A    between atoms: _115  and  _117
REMARK   53  A    between atoms: _117  and  _118
REMARK   54  A    between atoms: _117  and  _120
REMARK   55  A    between atoms: _120  and  _121
REMARK   56  A    between atoms: _123  and  _125
REMARK   57  A    between atoms: _125  and  _126
REMARK   58  A    between atoms: _125  and  _128
REMARK   59  A    between atoms: _128  and  _129
REMARK   60  A    between atoms: _132  and  _134
REMARK   61  A    between atoms: _134  and  _135
REMARK   62  A    between atoms: _134  and  _137
REMARK   63  A    between atoms: _137  and  _138
REMARK   64  A    between atoms: _143  and  _145
REMARK   65  A    between atoms: _145  and  _146
REMARK   66  A    between atoms: _149  and  _151
REMARK   67  A    between atoms: _151  and  _152
REMARK   68  A    between atoms: _151  and  _154
REMARK   69  A    between atoms: _154  and  _155
REMARK   70  A    between atoms: _157  and  _159
REMARK   71  A    between atoms: _159  and  _160
REMARK   72  A    between atoms: _162  and  _164
REMARK   73  A    between atoms: _164  and  _165
REMARK   74  A    between atoms: _164  and  _167
REMARK   75  A    between atoms: _167  and  _168
REMARK   76  A    between atoms: _171  and  _173
REMARK   77  A    between atoms: _173  and  _174
REMARK   78  A    between atoms: _173  and  _176
REMARK   79  A    between atoms: _176  and  _177
REMARK   80  A    between atoms: _177  and  _178
REMARK   81  A    between atoms: _183  and  _185
REMARK   82  A    between atoms: _185  and  _186
REMARK   83  A    between atoms: _185  and  _188
REMARK   84  A    between atoms: _188  and  _189
REMARK   85  A    between atoms: _195  and  _197
REMARK   86  A    between atoms: _197  and  _198
REMARK   87  A    between atoms: _197  and  _200
REMARK   88  A    between atoms: _203  and  _205
REMARK   89  A    between atoms: _205  and  _206
REMARK   90  A    between atoms: _205  and  _208
REMARK   91  A    between atoms: _208  and  _209
REMARK   92  A    between atoms: _214  and  _216
REMARK   93  A    between atoms: _216  and  _217
REMARK   94  A    between atoms: _216  and  _219
REMARK   95  A    between atoms: _219  and  _220
REMARK   96  A    between atoms: _222  and  _224
REMARK   97  A    between atoms: _224  and  _225
REMARK   98  A    between atoms: _224  and  _227
REMARK   99  A    between atoms: _227  and  _228
REMARK  100  A    between atoms: _228  and  _229
REMARK  101  A    between atoms: _229  and  _230
REMARK  102  A    between atoms: _230  and  _231
REMARK  103  A    between atoms: _235  and  _237
REMARK  104  A    between atoms: _237  and  _238
REMARK  105  A    between atoms: _237  and  _240
REMARK  106  A    between atoms: _240  and  _241
REMARK  107  A    between atoms: _244  and  _246
REMARK  108  A    between atoms: _246  and  _247
REMARK  109  A    between atoms: _250  and  _252
REMARK  110  A    between atoms: _252  and  _253
REMARK  111  A    between atoms: _252  and  _255
REMARK  112  A    between atoms: _258  and  _260
REMARK  113  A    between atoms: _260  and  _261
REMARK  114  A    between atoms: _260  and  _263
REMARK  115  A    between atoms: _263  and  _264
REMARK  116  A    between atoms: _264  and  _265
REMARK  117  A    between atoms: _268  and  _270
REMARK  118  A    between atoms: _270  and  _271
REMARK  119  A    between atoms: _270  and  _273
REMARK  120  A    between atoms: _273  and  _274
REMARK  121  A    between atoms: _274  and  _275
REMARK  122  A    between atoms: _277  and  _279
REMARK  123  A    between atoms: _279  and  _280
REMARK  124  A    between atoms: _279  and  _282
REMARK  125  A    between atoms: _282  and  _283
REMARK  126  A    between atoms: _283  and  _284
REMARK  127  A    between atoms: _287  and  _289
REMARK  128  A    between atoms: _289  and  _290
REMARK  129  A    between atoms: _292  and  _294
REMARK  130  A    between atoms: _294  and  _295
REMARK  131  A    between atoms: _294  and  _297
REMARK  132  A    between atoms: _297  and  _298
REMARK  133  A    between atoms: _298  and  _299
REMARK  134  A    between atoms: _299  and  _300
REMARK  135  A    between atoms: _309  and  _311
REMARK  136  A    between atoms: _311  and  _312
REMARK  137  A    between atoms: _311  and  _314
REMARK  138  A    between atoms: _314  and  _315
REMARK  139  A    between atoms: _317  and  _319
REMARK  140  A    between atoms: _319  and  _320
REMARK  141  A    between atoms: _319  and  _322
REMARK  142  A    between atoms: _322  and  _323
REMARK  143  A    between atoms: _326  and  _328
REMARK  144  A    between atoms: _328  and  _329
REMARK  145  A    between atoms: _328  and  _331
REMARK  146  A    between atoms: _331  and  _332
REMARK  147  A    between atoms: _334  and  _336
REMARK  148  A    between atoms: _336  and  _337
REMARK  149  A    between atoms: _336  and  _339
REMARK  150  A    between atoms: _339  and  _340
REMARK  151  A    between atoms: _343  and  _345
REMARK  152  A    between atoms: _345  and  _346
REMARK  153  A    between atoms: _345  and  _348
REMARK  154  A    between atoms: _348  and  _349
REMARK  155  A    between atoms: _354  and  _356
REMARK  156  A    between atoms: _356  and  _357
REMARK  157  A    between atoms: _360  and  _362
REMARK  158  A    between atoms: _362  and  _363
REMARK  159  A    between atoms: _362  and  _365
REMARK  160  A    between atoms: _365  and  _366
REMARK  161  A    between atoms: _369  and  _371
REMARK  162  A    between atoms: _371  and  _372
REMARK  163  A    between atoms: _375  and  _377
REMARK  164  A    between atoms: _377  and  _378
REMARK  165  A    between atoms: _380  and  _382
REMARK  166  A    between atoms: _382  and  _383
REMARK  167  A    between atoms: _382  and  _385
REMARK  168  A    between atoms: _385  and  _386
REMARK  169  A    between atoms: _388  and  _390
REMARK  170  A    between atoms: _390  and  _391
REMARK  171  A    between atoms: _390  and  _393
REMARK  172  A    between atoms: _393  and  _394
REMARK  173  A    between atoms: _400  and  _402
REMARK  174  A    between atoms: _402  and  _403
REMARK  175  A    between atoms: _402  and  _405
REMARK  176  A    between atoms: _405  and  _406
REMARK  177  A    between atoms: _409  and  _411
REMARK  178  A    between atoms: _411  and  _412
REMARK  179  A    between atoms: _411  and  _414
REMARK  180  A    between atoms: _414  and  _415
REMARK  181  A    between atoms: _418  and  _420
REMARK  182  A    between atoms: _420  and  _421
REMARK  183  A    between atoms: _420  and  _423
REMARK  184  A    between atoms: _423  and  _424
REMARK  185  A    between atoms: _426  and  _428
REMARK  186  A    between atoms: _428  and  _429
REMARK  187  A    between atoms: _428  and  _431
REMARK  188  A    between atoms: _431  and  _432
REMARK  189  A    between atoms: _435  and  _437
REMARK  190  A    between atoms: _437  and  _438
REMARK  191  A    between atoms: _437  and  _440
REMARK  192  A    between atoms: _440  and  _441
REMARK  193  A    between atoms: _444  and  _446
REMARK  194  A    between atoms: _446  and  _447
REMARK  195  A    between atoms: _446  and  _449
REMARK  196  A    between atoms: _449  and  _450
REMARK  197  A    between atoms: _452  and  _454
REMARK  198  A    between atoms: _454  and  _455
REMARK  199  A    between atoms: _458  and  _460
REMARK  200  A    between atoms: _460  and  _461
REMARK  201  A    between atoms: _460  and  _463
REMARK  202  A    between atoms: _463  and  _464
REMARK  203  A    between atoms: _470  and  _472
REMARK  204  A    between atoms: _472  and  _473
REMARK  205  A    between atoms: _472  and  _475
REMARK  206  A    between atoms: _475  and  _476
REMARK  207  A    between atoms: _479  and  _481
REMARK  208  A    between atoms: _481  and  _482
REMARK  209  A    between atoms: _481  and  _484
REMARK  210  A    between atoms: _484  and  _485
REMARK  211  A    between atoms: _490  and  _492
REMARK  212  A    between atoms: _492  and  _493
REMARK  213  A    between atoms: _492  and  _495
REMARK  214  A    between atoms: _495  and  _496
REMARK  215  A    between atoms: _502  and  _504
REMARK  216  A    between atoms: _504  and  _505
REMARK  217  A    between atoms: _504  and  _507
REMARK  218  A    between atoms: _507  and  _508
REMARK  219  A    between atoms: _512  and  _513
REMARK                            x       y       z     vdW  Elec       q    Type
REMARK                         _______ _______ _______ _____ _____    ______ ____
ROOT
ATOM      1  C   PHE A   1      -4.219  22.434 -12.708  0.00  0.00    +0.239 C 
ATOM      2  N   ILE A   2      -4.590  21.184 -12.447  0.00  0.00    -0.297 N 
ATOM      3  H   ILE A   2      -4.421  20.805 -11.494  0.00  0.00    +0.150 HD
ATOM      4  O   PHE A   1      -4.306  22.939 -13.833  0.00  0.00    -0.274 OA
ENDROOT
BRANCH   1   5
ATOM      5  CA  PHE A   1      -3.710  23.244 -11.494  0.00  0.00    +0.149 C 
BRANCH   5   6
ATOM      6  N   PHE A   1      -2.576  24.099 -11.793  0.00  0.00    -0.238 NA
ATOM      7  H   PHE A   1      -2.745  25.069 -12.128  0.00  0.00    +0.142 HD
ENDBRANCH   5   6
BRANCH   5   8
ATOM      8  CB  PHE A   1      -4.854  24.086 -10.934  0.00  0.00    +0.053 C 
BRANCH   8   9
ATOM      9  CG  PHE A   1      -6.078  23.291 -10.603  0.00  0.00    -0.020 A 
ATOM     10  CD2 PHE A   1      -6.190  22.650  -9.380  0.00  0.00    -0.004 A 
ATOM     11  CE2 PHE A   1      -7.312  21.908  -9.072  0.00  0.00    -0.000 A 
ATOM     12  CZ  PHE A   1      -8.344  21.811  -9.996  0.00  0.00    -0.000 A 
ATOM     13  CE1 PHE A   1      -8.252  22.454 -11.214  0.00  0.00    -0.000 A 
ATOM     14  CD1 PHE A   1      -7.121  23.186 -11.519  0.00  0.00    -0.004 A 
ENDBRANCH   8   9
ENDBRANCH   5   8
ENDBRANCH   1   5
BRANCH   2  15
ATOM     15  CA  ILE A   2      -5.223  20.322 -13.436  0.00  0.00    +0.149 C 
BRANCH  15  16
ATOM     16  C   ILE A   2      -6.463  19.665 -12.814  0.00  0.00    +0.244 C 
ATOM     17  O   ILE A   2      -6.392  19.165 -11.685  0.00  0.00    -0.273 OA
ATOM     18  N   PRO A   3      -7.595  19.657 -13.541  0.00  0.00    -0.273 N 
ATOM     19  CA  PRO A   3      -8.776  19.005 -13.010  0.00  0.00    +0.140 C 
ATOM     20  CB  PRO A   3      -9.747  19.032 -14.184  0.00  0.00    +0.030 C 
ATOM     21  CG  PRO A   3      -9.374  20.251 -14.959  0.00  0.00    +0.024 C 
ATOM     22  CD  PRO A   3      -7.909  20.493 -14.720  0.00  0.00    +0.094 C 
BRANCH  19  23
ATOM     23  C   PRO A   3      -8.514  17.569 -12.546  0.00  0.00    +0.227 C 
ATOM     24  O   PRO A   3      -7.703  16.837 -13.155  0.00  0.00    -0.286 OA
ENDBRANCH  19  23
ENDBRANCH  15  16
BRANCH  15  25
ATOM     25  CB  ILE A   2      -4.257  19.215 -13.895  0.00  0.00    +0.027 C 
ATOM     26  CG2 ILE A   2      -4.975  18.227 -14.820  0.00  0.00    +0.002 C 
BRANCH  25  27
ATOM     27  CG1 ILE A   2      -3.034  19.836 -14.569  0.00  0.00    +0.002 C 
ATOM     28  CD1 ILE A   2      -1.881  18.875 -14.769  0.00  0.00    +0.000 C 
ENDBRANCH  25  27
ENDBRANCH  15  25
ENDBRANCH   2  15
TORSDOF 9
REMARK  Name = ../refined-set-2016/4yo8/4yo8_pocket.pdb
REMARK  219 active torsions:
REMARK  status: ('A' for Active; 'I' for Inactive)
REMARK    1  A    between atoms: _1  and  _3
REMARK    2  A    between atoms: _3  and  _4
REMARK    3  A    between atoms: _6  and  _8
REMARK    4  A    between atoms: _8  and  _9
REMARK    5  A    between atoms: _12  and  _14
REMARK    6  A    between atoms: _14  and  _15
REMARK    7  A    between atoms: _14  and  _17
REMARK    8  A    between atoms: _17  and  _18
REMARK    9  A    between atoms: _18  and  _19
REMARK   10  A    between atoms: _21  and  _23
REMARK   11  A    between atoms: _23  and  _24
REMARK   12  A    between atoms: _23  and  _26
REMARK   13  A    between atoms: _26  and  _27
REMARK   14  A    between atoms: _27  and  _28
REMARK   15  A    between atoms: _31  and  _33
REMARK   16  A    between atoms: _33  and  _34
REMARK   17  A    between atoms: _33  and  _36
REMARK   18  A    between atoms: _36  and  _37
REMARK   19  A    between atoms: _39  and  _41
REMARK   20  A    between atoms: _41  and  _42
REMARK   21  A    between atoms: _41  and  _44
REMARK   22  A    between atoms: _44  and  _45
REMARK   23  A    between atoms: _45  and  _46
REMARK   24  A    between atoms: _46  and  _47
REMARK   25  A    between atoms: _47  and  _48
REMARK   26  A    between atoms: _52  and  _54
REMARK   27  A    between atoms: _54  and  _55
REMARK   28  A    between atoms: _54  and  _57
REMARK   29  A    between atoms: _57  and  _58
REMARK   30  A    between atoms: _61  and  _63
REMARK   31  A    between atoms: _63  and  _64
REMARK   32  A    between atoms: _66  and  _68
REMARK   33  A    between atoms: _68  and  _69
REMARK   34  A    between atoms: _68  and  _71
REMARK   35  A    between atoms: _71  and  _72
REMARK   36  A    between atoms: _72  and  _73
REMARK   37  A    between atoms: _73  and  _74
REMARK   38  A    between atoms: _74  and  _75
REMARK   39  A    between atoms: _79  and  _81
REMARK   40  A    between atoms: _81  and  _82
REMARK   41  A    between atoms: _81  and  _84
REMARK   42  A    between atoms: _84  and  _85
REMARK   43  A    between atoms: _91  and  _93
REMARK   44  A    between atoms: _93  and  _94
REMARK   45  A    between atoms: _96  and  _98
REMARK   46  A    between atoms: _98  and  _99
REMARK   47  A    between atoms: _98  and  _101
REMARK   48  A    between atoms: _104  and  _106
REMARK   49  A    between atoms: _106  and  _107
REMARK   50  A    between atoms: _110  and  _112
REMARK   51  A    between atoms: _112  and  _113
REMARK   52  A    between atoms: _115  and  _117
REMARK   53  A    between atoms: _117  and  _118
REMARK   54  A    between atoms: _117  and  _120
REMARK   55  A    between atoms: _120  and  _121
REMARK   56  A    between atoms: _123  and  _125
REMARK   57  A    between atoms: _125  and  _126
REMARK   58  A    between atoms: _125  and  _128
REMARK   59  A    between atoms: _128  and  _129
REMARK   60  A    between atoms: _132  and  _134
REMARK   61  A    between atoms: _134  and  _135
REMARK   62  A    between atoms: _134  and  _137
REMARK   63  A    between atoms: _137  and  _138
REMARK   64  A    between atoms: _143  and  _145
REMARK   65  A    between atoms: _145  and  _146
REMARK   66  A    between atoms: _149  and  _151
REMARK   67  A    between atoms: _151  and  _152
REMARK   68  A    between atoms: _151  and  _154
REMARK   69  A    between atoms: _154  and  _155
REMARK   70  A    between atoms: _157  and  _159
REMARK   71  A    between atoms: _159  and  _160
REMARK   72  A    between atoms: _162  and  _164
REMARK   73  A    between atoms: _164  and  _165
REMARK   74  A    between atoms: _164  and  _167
REMARK   75  A    between atoms: _167  and  _168
REMARK   76  A    between atoms: _171  and  _173
REMARK   77  A    between atoms: _173  and  _174
REMARK   78  A    between atoms: _173  and  _176
REMARK   79  A    between atoms: _176  and  _177
REMARK   80  A    between atoms: _177  and  _178
REMARK   81  A    between atoms: _183  and  _185
REMARK   82  A    between atoms: _185  and  _186
REMARK   83  A    between atoms: _185  and  _188
REMARK   84  A    between atoms: _188  and  _189
REMARK   85  A    between atoms: _195  and  _197
REMARK   86  A    between atoms: _197  and  _198
REMARK   87  A    between atoms: _197  and  _200
REMARK   88  A    between atoms: _203  and  _205
REMARK   89  A    between atoms: _205  and  _206
REMARK   90  A    between atoms: _205  and  _208
REMARK   91  A    between atoms: _208  and  _209
REMARK   92  A    between atoms: _214  and  _216
REMARK   93  A    between atoms: _216  and  _217
REMARK   94  A    between atoms: _216  and  _219
REMARK   95  A    between atoms: _219  and  _220
REMARK   96  A    between atoms: _222  and  _224
REMARK   97  A    between atoms: _224  and  _225
REMARK   98  A    between atoms: _224  and  _227
REMARK   99  A    between atoms: _227  and  _228
REMARK  100  A    between atoms: _228  and  _229
REMARK  101  A    between atoms: _229  and  _230
REMARK  102  A    between atoms: _230  and  _231
REMARK  103  A    between atoms: _235  and  _237
REMARK  104  A    between atoms: _237  and  _238
REMARK  105  A    between atoms: _237  and  _240
REMARK  106  A    between atoms: _240  and  _241
REMARK  107  A    between atoms: _244  and  _246
REMARK  108  A    between atoms: _246  and  _247
REMARK  109  A    between atoms: _250  and  _252
REMARK  110  A    between atoms: _252  and  _253
REMARK  111  A    between atoms: _252  and  _255
REMARK  112  A    between atoms: _258  and  _260
REMARK  113  A    between atoms: _260  and  _261
REMARK  114  A    between atoms: _260  and  _263
REMARK  115  A    between atoms: _263  and  _264
REMARK  116  A    between atoms: _264  and  _265
REMARK  117  A    between atoms: _268  and  _270
REMARK  118  A    between atoms: _270  and  _271
REMARK  119  A    between atoms: _270  and  _273
REMARK  120  A    between atoms: _273  and  _274
REMARK  121  A    between atoms: _274  and  _275
REMARK  122  A    between atoms: _277  and  _279
REMARK  123  A    between atoms: _279  and  _280
REMARK  124  A    between atoms: _279  and  _282
REMARK  125  A    between atoms: _282  and  _283
REMARK  126  A    between atoms: _283  and  _284
REMARK  127  A    between atoms: _287  and  _289
REMARK  128  A    between atoms: _289  and  _290
REMARK  129  A    between atoms: _292  and  _294
REMARK  130  A    between atoms: _294  and  _295
REMARK  131  A    between atoms: _294  and  _297
REMARK  132  A    between atoms: _297  and  _298
REMARK  133  A    between atoms: _298  and  _299
REMARK  134  A    between atoms: _299  and  _300
REMARK  135  A    between atoms: _309  and  _311
REMARK  136  A    between atoms: _311  and  _312
REMARK  137  A    between atoms: _311  and  _314
REMARK  138  A    between atoms: _314  and  _315
REMARK  139  A    between atoms: _317  and  _319
REMARK  140  A    between atoms: _319  and  _320
REMARK  141  A    between atoms: _319  and  _322
REMARK  142  A    between atoms: _322  and  _323
REMARK  143  A    between atoms: _326  and  _328
REMARK  144  A    between atoms: _328  and  _329
REMARK  145  A    between atoms: _328  and  _331
REMARK  146  A    between atoms: _331  and  _332
REMARK  147  A    between atoms: _334  and  _336
REMARK  148  A    between atoms: _336  and  _337
REMARK  149  A    between atoms: _336  and  _339
REMARK  150  A    between atoms: _339  and  _340
REMARK  151  A    between atoms: _343  and  _345
REMARK  152  A    between atoms: _345  and  _346
REMARK  153  A    between atoms: _345  and  _348
REMARK  154  A    between atoms: _348  and  _349
REMARK  155  A    between atoms: _354  and  _356
REMARK  156  A    between atoms: _356  and  _357
REMARK  157  A    between atoms: _360  and  _362
REMARK  158  A    between atoms: _362  and  _363
REMARK  159  A    between atoms: _362  and  _365
REMARK  160  A    between atoms: _365  and  _366
REMARK  161  A    between atoms: _369  and  _371
REMARK  162  A    between atoms: _371  and  _372
REMARK  163  A    between atoms: _375  and  _377
REMARK  164  A    between atoms: _377  and  _378
REMARK  165  A    between atoms: _380  and  _382
REMARK  166  A    between atoms: _382  and  _383
REMARK  167  A    between atoms: _382  and  _385
REMARK  168  A    between atoms: _385  and  _386
REMARK  169  A    between atoms: _388  and  _390
REMARK  170  A    between atoms: _390  and  _391
REMARK  171  A    between atoms: _390  and  _393
REMARK  172  A    between atoms: _393  and  _394
REMARK  173  A    between atoms: _400  and  _402
REMARK  174  A    between atoms: _402  and  _403
REMARK  175  A    between atoms: _402  and  _405
REMARK  176  A    between atoms: _405  and  _406
REMARK  177  A    between atoms: _409  and  _411
REMARK  178  A    between atoms: _411  and  _412
REMARK  179  A    between atoms: _411  and  _414
REMARK  180  A    between atoms: _414  and  _415
REMARK  181  A    between atoms: _418  and  _420
REMARK  182  A    between atoms: _420  and  _421
REMARK  183  A    between atoms: _420  and  _423
REMARK  184  A    between atoms: _423  and  _424
REMARK  185  A    between atoms: _426  and  _428
REMARK  186  A    between atoms: _428  and  _429
REMARK  187  A    between atoms: _428  and  _431
REMARK  188  A    between atoms: _431  and  _432
REMARK  189  A    between atoms: _435  and  _437
REMARK  190  A    between atoms: _437  and  _438
REMARK  191  A    between atoms: _437  and  _440
REMARK  192  A    between atoms: _440  and  _441
REMARK  193  A    between atoms: _444  and  _446
REMARK  194  A    between atoms: _446  and  _447
REMARK  195  A    between atoms: _446  and  _449
REMARK  196  A    between atoms: _449  and  _450
REMARK  197  A    between atoms: _452  and  _454
REMARK  198  A    between atoms: _454  and  _455
REMARK  199  A    between atoms: _458  and  _460
REMARK  200  A    between atoms: _460  and  _461
REMARK  201  A    between atoms: _460  and  _463
REMARK  202  A    between atoms: _463  and  _464
REMARK  203  A    between atoms: _470  and  _472
REMARK  204  A    between atoms: _472  and  _473
REMARK  205  A    between atoms: _472  and  _475
REMARK  206  A    between atoms: _475  and  _476
REMARK  207  A    between atoms: _479  and  _481
REMARK  208  A    between atoms: _481  and  _482
REMARK  209  A    between atoms: _481  and  _484
REMARK  210  A    between atoms: _484  and  _485
REMARK  211  A    between atoms: _490  and  _492
REMARK  212  A    between atoms: _492  and  _493
REMARK  213  A    between atoms: _492  and  _495
REMARK  214  A    between atoms: _495  and  _496
REMARK  215  A    between atoms: _502  and  _504
REMARK  216  A    between atoms: _504  and  _505
REMARK  217  A    between atoms: _504  and  _507
REMARK  218  A    between atoms: _507  and  _508
REMARK  219  A    between atoms: _512  and  _513
REMARK                            x       y       z     vdW  Elec       q    Type
REMARK                         _______ _______ _______ _____ _____    ______ ____
ROOT
ATOM      1  O   HOH     1       0.039  21.707 -25.805  0.00  0.00    +0.000 OA
ENDROOT
TORSDOF 0
REMARK  Name = ../refined-set-2016/4yo8/4yo8_pocket.pdb
REMARK  219 active torsions:
REMARK  status: ('A' for Active; 'I' for Inactive)
REMARK    1  A    between atoms: _1  and  _3
REMARK    2  A    between atoms: _3  and  _4
REMARK    3  A    between atoms: _6  and  _8
REMARK    4  A    between atoms: _8  and  _9
REMARK    5  A    between atoms: _12  and  _14
REMARK    6  A    between atoms: _14  and  _15
REMARK    7  A    between atoms: _14  and  _17
REMARK    8  A    between atoms: _17  and  _18
REMARK    9  A    between atoms: _18  and  _19
REMARK   10  A    between atoms: _21  and  _23
REMARK   11  A    between atoms: _23  and  _24
REMARK   12  A    between atoms: _23  and  _26
REMARK   13  A    between atoms: _26  and  _27
REMARK   14  A    between atoms: _27  and  _28
REMARK   15  A    between atoms: _31  and  _33
REMARK   16  A    between atoms: _33  and  _34
REMARK   17  A    between atoms: _33  and  _36
REMARK   18  A    between atoms: _36  and  _37
REMARK   19  A    between atoms: _39  and  _41
REMARK   20  A    between atoms: _41  and  _42
REMARK   21  A    between atoms: _41  and  _44
REMARK   22  A    between atoms: _44  and  _45
REMARK   23  A    between atoms: _45  and  _46
REMARK   24  A    between atoms: _46  and  _47
REMARK   25  A    between atoms: _47  and  _48
REMARK   26  A    between atoms: _52  and  _54
REMARK   27  A    between atoms: _54  and  _55
REMARK   28  A    between atoms: _54  and  _57
REMARK   29  A    between atoms: _57  and  _58
REMARK   30  A    between atoms: _61  and  _63
REMARK   31  A    between atoms: _63  and  _64
REMARK   32  A    between atoms: _66  and  _68
REMARK   33  A    between atoms: _68  and  _69
REMARK   34  A    between atoms: _68  and  _71
REMARK   35  A    between atoms: _71  and  _72
REMARK   36  A    between atoms: _72  and  _73
REMARK   37  A    between atoms: _73  and  _74
REMARK   38  A    between atoms: _74  and  _75
REMARK   39  A    between atoms: _79  and  _81
REMARK   40  A    between atoms: _81  and  _82
REMARK   41  A    between atoms: _81  and  _84
REMARK   42  A    between atoms: _84  and  _85
REMARK   43  A    between atoms: _91  and  _93
REMARK   44  A    between atoms: _93  and  _94
REMARK   45  A    between atoms: _96  and  _98
REMARK   46  A    between atoms: _98  and  _99
REMARK   47  A    between atoms: _98  and  _101
REMARK   48  A    between atoms: _104  and  _106
REMARK   49  A    between atoms: _106  and  _107
REMARK   50  A    between atoms: _110  and  _112
REMARK   51  A    between atoms: _112  and  _113
REMARK   52  A    between atoms: _115  and  _117
REMARK   53  A    between atoms: _117  and  _118
REMARK   54  A    between atoms: _117  and  _120
REMARK   55  A    between atoms: _120  and  _121
REMARK   56  A    between atoms: _123  and  _125
REMARK   57  A    between atoms: _125  and  _126
REMARK   58  A    between atoms: _125  and  _128
REMARK   59  A    between atoms: _128  and  _129
REMARK   60  A    between atoms: _132  and  _134
REMARK   61  A    between atoms: _134  and  _135
REMARK   62  A    between atoms: _134  and  _137
REMARK   63  A    between atoms: _137  and  _138
REMARK   64  A    between atoms: _143  and  _145
REMARK   65  A    between atoms: _145  and  _146
REMARK   66  A    between atoms: _149  and  _151
REMARK   67  A    between atoms: _151  and  _152
REMARK   68  A    between atoms: _151  and  _154
REMARK   69  A    between atoms: _154  and  _155
REMARK   70  A    between atoms: _157  and  _159
REMARK   71  A    between atoms: _159  and  _160
REMARK   72  A    between atoms: _162  and  _164
REMARK   73  A    between atoms: _164  and  _165
REMARK   74  A    between atoms: _164  and  _167
REMARK   75  A    between atoms: _167  and  _168
REMARK   76  A    between atoms: _171  and  _173
REMARK   77  A    between atoms: _173  and  _174
REMARK   78  A    between atoms: _173  and  _176
REMARK   79  A    between atoms: _176  and  _177
REMARK   80  A    between atoms: _177  and  _178
REMARK   81  A    between atoms: _183  and  _185
REMARK   82  A    between atoms: _185  and  _186
REMARK   83  A    between atoms: _185  and  _188
REMARK   84  A    between atoms: _188  and  _189
REMARK   85  A    between atoms: _195  and  _197
REMARK   86  A    between atoms: _197  and  _198
REMARK   87  A    between atoms: _197  and  _200
REMARK   88  A    between atoms: _203  and  _205
REMARK   89  A    between atoms: _205  and  _206
REMARK   90  A    between atoms: _205  and  _208
REMARK   91  A    between atoms: _208  and  _209
REMARK   92  A    between atoms: _214  and  _216
REMARK   93  A    between atoms: _216  and  _217
REMARK   94  A    between atoms: _216  and  _219
REMARK   95  A    between atoms: _219  and  _220
REMARK   96  A    between atoms: _222  and  _224
REMARK   97  A    between atoms: _224  and  _225
REMARK   98  A    between atoms: _224  and  _227
REMARK   99  A    between atoms: _227  and  _228
REMARK  100  A    between atoms: _228  and  _229
REMARK  101  A    between atoms: _229  and  _230
REMARK  102  A    between atoms: _230  and  _231
REMARK  103  A    between atoms: _235  and  _237
REMARK  104  A    between atoms: _237  and  _238
REMARK  105  A    between atoms: _237  and  _240
REMARK  106  A    between atoms: _240  and  _241
REMARK  107  A    between atoms: _244  and  _246
REMARK  108  A    between atoms: _246  and  _247
REMARK  109  A    between atoms: _250  and  _252
REMARK  110  A    between atoms: _252  and  _253
REMARK  111  A    between atoms: _252  and  _255
REMARK  112  A    between atoms: _258  and  _260
REMARK  113  A    between atoms: _260  and  _261
REMARK  114  A    between atoms: _260  and  _263
REMARK  115  A    between atoms: _263  and  _264
REMARK  116  A    between atoms: _264  and  _265
REMARK  117  A    between atoms: _268  and  _270
REMARK  118  A    between atoms: _270  and  _271
REMARK  119  A    between atoms: _270  and  _273
REMARK  120  A    between atoms: _273  and  _274
REMARK  121  A    between atoms: _274  and  _275
REMARK  122  A    between atoms: _277  and  _279
REMARK  123  A    between atoms: _279  and  _280
REMARK  124  A    between atoms: _279  and  _282
REMARK  125  A    between atoms: _282  and  _283
REMARK  126  A    between atoms: _283  and  _284
REMARK  127  A    between atoms: _287  and  _289
REMARK  128  A    between atoms: _289  and  _290
REMARK  129  A    between atoms: _292  and  _294
REMARK  130  A    between atoms: _294  and  _295
REMARK  131  A    between atoms: _294  and  _297
REMARK  132  A    between atoms: _297  and  _298
REMARK  133  A    between atoms: _298  and  _299
REMARK  134  A    between atoms: _299  and  _300
REMARK  135  A    between atoms: _309  and  _311
REMARK  136  A    between atoms: _311  and  _312
REMARK  137  A    between atoms: _311  and  _314
REMARK  138  A    between atoms: _314  and  _315
REMARK  139  A    between atoms: _317  and  _319
REMARK  140  A    between atoms: _319  and  _320
REMARK  141  A    between atoms: _319  and  _322
REMARK  142  A    between atoms: _322  and  _323
REMARK  143  A    between atoms: _326  and  _328
REMARK  144  A    between atoms: _328  and  _329
REMARK  145  A    between atoms: _328  and  _331
REMARK  146  A    between atoms: _331  and  _332
REMARK  147  A    between atoms: _334  and  _336
REMARK  148  A    between atoms: _336  and  _337
REMARK  149  A    between atoms: _336  and  _339
REMARK  150  A    between atoms: _339  and  _340
REMARK  151  A    between atoms: _343  and  _345
REMARK  152  A    between atoms: _345  and  _346
REMARK  153  A    between atoms: _345  and  _348
REMARK  154  A    between atoms: _348  and  _349
REMARK  155  A    between atoms: _354  and  _356
REMARK  156  A    between atoms: _356  and  _357
REMARK  157  A    between atoms: _360  and  _362
REMARK  158  A    between atoms: _362  and  _363
REMARK  159  A    between atoms: _362  and  _365
REMARK  160  A    between atoms: _365  and  _366
REMARK  161  A    between atoms: _369  and  _371
REMARK  162  A    between atoms: _371  and  _372
REMARK  163  A    between atoms: _375  and  _377
REMARK  164  A    between atoms: _377  and  _378
REMARK  165  A    between atoms: _380  and  _382
REMARK  166  A    between atoms: _382  and  _383
REMARK  167  A    between atoms: _382  and  _385
REMARK  168  A    between atoms: _385  and  _386
REMARK  169  A    between atoms: _388  and  _390
REMARK  170  A    between atoms: _390  and  _391
REMARK  171  A    between atoms: _390  and  _393
REMARK  172  A    between atoms: _393  and  _394
REMARK  173  A    between atoms: _400  and  _402
REMARK  174  A    between atoms: _402  and  _403
REMARK  175  A    between atoms: _402  and  _405
REMARK  176  A    between atoms: _405  and  _406
REMARK  177  A    between atoms: _409  and  _411
REMARK  178  A    between atoms: _411  and  _412
REMARK  179  A    between atoms: _411  and  _414
REMARK  180  A    between atoms: _414  and  _415
REMARK  181  A    between atoms: _418  and  _420
REMARK  182  A    between atoms: _420  and  _421
REMARK  183  A    between atoms: _420  and  _423
REMARK  184  A    between atoms: _423  and  _424
REMARK  185  A    between atoms: _426  and  _428
REMARK  186  A    between atoms: _428  and  _429
REMARK  187  A    between atoms: _428  and  _431
REMARK  188  A    between atoms: _431  and  _432
REMARK  189  A    between atoms: _435  and  _437
REMARK  190  A    between atoms: _437  and  _438
REMARK  191  A    between atoms: _437  and  _440
REMARK  192  A    between atoms: _440  and  _441
REMARK  193  A    between atoms: _444  and  _446
REMARK  194  A    between atoms: _446  and  _447
REMARK  195  A    between atoms: _446  and  _449
REMARK  196  A    between atoms: _449  and  _450
REMARK  197  A    between atoms: _452  and  _454
REMARK  198  A    between atoms: _454  and  _455
REMARK  199  A    between atoms: _458  and  _460
REMARK  200  A    between atoms: _460  and  _461
REMARK  201  A    between atoms: _460  and  _463
REMARK  202  A    between atoms: _463  and  _464
REMARK  203  A    between atoms: _470  and  _472
REMARK  204  A    between atoms: _472  and  _473
REMARK  205  A    between atoms: _472  and  _475
REMARK  206  A    between atoms: _475  and  _476
REMARK  207  A    between atoms: _479  and  _481
REMARK  208  A    between atoms: _481  and  _482
REMARK  209  A    between atoms: _481  and  _484
REMARK  210  A    between atoms: _484  and  _485
REMARK  211  A    between atoms: _490  and  _492
REMARK  212  A    between atoms: _492  and  _493
REMARK  213  A    between atoms: _492  and  _495
REMARK  214  A    between atoms: _495  and  _496
REMARK  215  A    between atoms: _502  and  _504
REMARK  216  A    between atoms: _504  and  _505
REMARK  217  A    between atoms: _504  and  _507
REMARK  218  A    between atoms: _507  and  _508
REMARK  219  A    between atoms: _512  and  _513
REMARK                            x       y       z     vdW  Elec       q    Type
REMARK                         _______ _______ _______ _____ _____    ______ ____
ROOT
ATOM      1  O   HOH     1      -7.613  15.429 -24.762  0.00  0.00    +0.000 OA
ENDROOT
TORSDOF 0
REMARK  Name = ../refined-set-2016/4yo8/4yo8_pocket.pdb
REMARK  219 active torsions:
REMARK  status: ('A' for Active; 'I' for Inactive)
REMARK    1  A    between atoms: _1  and  _3
REMARK    2  A    between atoms: _3  and  _4
REMARK    3  A    between atoms: _6  and  _8
REMARK    4  A    between atoms: _8  and  _9
REMARK    5  A    between atoms: _12  and  _14
REMARK    6  A    between atoms: _14  and  _15
REMARK    7  A    between atoms: _14  and  _17
REMARK    8  A    between atoms: _17  and  _18
REMARK    9  A    between atoms: _18  and  _19
REMARK   10  A    between atoms: _21  and  _23
REMARK   11  A    between atoms: _23  and  _24
REMARK   12  A    between atoms: _23  and  _26
REMARK   13  A    between atoms: _26  and  _27
REMARK   14  A    between atoms: _27  and  _28
REMARK   15  A    between atoms: _31  and  _33
REMARK   16  A    between atoms: _33  and  _34
REMARK   17  A    between atoms: _33  and  _36
REMARK   18  A    between atoms: _36  and  _37
REMARK   19  A    between atoms: _39  and  _41
REMARK   20  A    between atoms: _41  and  _42
REMARK   21  A    between atoms: _41  and  _44
REMARK   22  A    between atoms: _44  and  _45
REMARK   23  A    between atoms: _45  and  _46
REMARK   24  A    between atoms: _46  and  _47
REMARK   25  A    between atoms: _47  and  _48
REMARK   26  A    between atoms: _52  and  _54
REMARK   27  A    between atoms: _54  and  _55
REMARK   28  A    between atoms: _54  and  _57
REMARK   29  A    between atoms: _57  and  _58
REMARK   30  A    between atoms: _61  and  _63
REMARK   31  A    between atoms: _63  and  _64
REMARK   32  A    between atoms: _66  and  _68
REMARK   33  A    between atoms: _68  and  _69
REMARK   34  A    between atoms: _68  and  _71
REMARK   35  A    between atoms: _71  and  _72
REMARK   36  A    between atoms: _72  and  _73
REMARK   37  A    between atoms: _73  and  _74
REMARK   38  A    between atoms: _74  and  _75
REMARK   39  A    between atoms: _79  and  _81
REMARK   40  A    between atoms: _81  and  _82
REMARK   41  A    between atoms: _81  and  _84
REMARK   42  A    between atoms: _84  and  _85
REMARK   43  A    between atoms: _91  and  _93
REMARK   44  A    between atoms: _93  and  _94
REMARK   45  A    between atoms: _96  and  _98
REMARK   46  A    between atoms: _98  and  _99
REMARK   47  A    between atoms: _98  and  _101
REMARK   48  A    between atoms: _104  and  _106
REMARK   49  A    between atoms: _106  and  _107
REMARK   50  A    between atoms: _110  and  _112
REMARK   51  A    between atoms: _112  and  _113
REMARK   52  A    between atoms: _115  and  _117
REMARK   53  A    between atoms: _117  and  _118
REMARK   54  A    between atoms: _117  and  _120
REMARK   55  A    between atoms: _120  and  _121
REMARK   56  A    between atoms: _123  and  _125
REMARK   57  A    between atoms: _125  and  _126
REMARK   58  A    between atoms: _125  and  _128
REMARK   59  A    between atoms: _128  and  _129
REMARK   60  A    between atoms: _132  and  _134
REMARK   61  A    between atoms: _134  and  _135
REMARK   62  A    between atoms: _134  and  _137
REMARK   63  A    between atoms: _137  and  _138
REMARK   64  A    between atoms: _143  and  _145
REMARK   65  A    between atoms: _145  and  _146
REMARK   66  A    between atoms: _149  and  _151
REMARK   67  A    between atoms: _151  and  _152
REMARK   68  A    between atoms: _151  and  _154
REMARK   69  A    between atoms: _154  and  _155
REMARK   70  A    between atoms: _157  and  _159
REMARK   71  A    between atoms: _159  and  _160
REMARK   72  A    between atoms: _162  and  _164
REMARK   73  A    between atoms: _164  and  _165
REMARK   74  A    between atoms: _164  and  _167
REMARK   75  A    between atoms: _167  and  _168
REMARK   76  A    between atoms: _171  and  _173
REMARK   77  A    between atoms: _173  and  _174
REMARK   78  A    between atoms: _173  and  _176
REMARK   79  A    between atoms: _176  and  _177
REMARK   80  A    between atoms: _177  and  _178
REMARK   81  A    between atoms: _183  and  _185
REMARK   82  A    between atoms: _185  and  _186
REMARK   83  A    between atoms: _185  and  _188
REMARK   84  A    between atoms: _188  and  _189
REMARK   85  A    between atoms: _195  and  _197
REMARK   86  A    between atoms: _197  and  _198
REMARK   87  A    between atoms: _197  and  _200
REMARK   88  A    between atoms: _203  and  _205
REMARK   89  A    between atoms: _205  and  _206
REMARK   90  A    between atoms: _205  and  _208
REMARK   91  A    between atoms: _208  and  _209
REMARK   92  A    between atoms: _214  and  _216
REMARK   93  A    between atoms: _216  and  _217
REMARK   94  A    between atoms: _216  and  _219
REMARK   95  A    between atoms: _219  and  _220
REMARK   96  A    between atoms: _222  and  _224
REMARK   97  A    between atoms: _224  and  _225
REMARK   98  A    between atoms: _224  and  _227
REMARK   99  A    between atoms: _227  and  _228
REMARK  100  A    between atoms: _228  and  _229
REMARK  101  A    between atoms: _229  and  _230
REMARK  102  A    between atoms: _230  and  _231
REMARK  103  A    between atoms: _235  and  _237
REMARK  104  A    between atoms: _237  and  _238
REMARK  105  A    between atoms: _237  and  _240
REMARK  106  A    between atoms: _240  and  _241
REMARK  107  A    between atoms: _244  and  _246
REMARK  108  A    between atoms: _246  and  _247
REMARK  109  A    between atoms: _250  and  _252
REMARK  110  A    between atoms: _252  and  _253
REMARK  111  A    between atoms: _252  and  _255
REMARK  112  A    between atoms: _258  and  _260
REMARK  113  A    between atoms: _260  and  _261
REMARK  114  A    between atoms: _260  and  _263
REMARK  115  A    between atoms: _263  and  _264
REMARK  116  A    between atoms: _264  and  _265
REMARK  117  A    between atoms: _268  and  _270
REMARK  118  A    between atoms: _270  and  _271
REMARK  119  A    between atoms: _270  and  _273
REMARK  120  A    between atoms: _273  and  _274
REMARK  121  A    between atoms: _274  and  _275
REMARK  122  A    between atoms: _277  and  _279
REMARK  123  A    between atoms: _279  and  _280
REMARK  124  A    between atoms: _279  and  _282
REMARK  125  A    between atoms: _282  and  _283
REMARK  126  A    between atoms: _283  and  _284
REMARK  127  A    between atoms: _287  and  _289
REMARK  128  A    between atoms: _289  and  _290
REMARK  129  A    between atoms: _292  and  _294
REMARK  130  A    between atoms: _294  and  _295
REMARK  131  A    between atoms: _294  and  _297
REMARK  132  A    between atoms: _297  and  _298
REMARK  133  A    between atoms: _298  and  _299
REMARK  134  A    between atoms: _299  and  _300
REMARK  135  A    between atoms: _309  and  _311
REMARK  136  A    between atoms: _311  and  _312
REMARK  137  A    between atoms: _311  and  _314
REMARK  138  A    between atoms: _314  and  _315
REMARK  139  A    between atoms: _317  and  _319
REMARK  140  A    between atoms: _319  and  _320
REMARK  141  A    between atoms: _319  and  _322
REMARK  142  A    between atoms: _322  and  _323
REMARK  143  A    between atoms: _326  and  _328
REMARK  144  A    between atoms: _328  and  _329
REMARK  145  A    between atoms: _328  and  _331
REMARK  146  A    between atoms: _331  and  _332
REMARK  147  A    between atoms: _334  and  _336
REMARK  148  A    between atoms: _336  and  _337
REMARK  149  A    between atoms: _336  and  _339
REMARK  150  A    between atoms: _339  and  _340
REMARK  151  A    between atoms: _343  and  _345
REMARK  152  A    between atoms: _345  and  _346
REMARK  153  A    between atoms: _345  and  _348
REMARK  154  A    between atoms: _348  and  _349
REMARK  155  A    between atoms: _354  and  _356
REMARK  156  A    between atoms: _356  and  _357
REMARK  157  A    between atoms: _360  and  _362
REMARK  158  A    between atoms: _362  and  _363
REMARK  159  A    between atoms: _362  and  _365
REMARK  160  A    between atoms: _365  and  _366
REMARK  161  A    between atoms: _369  and  _371
REMARK  162  A    between atoms: _371  and  _372
REMARK  163  A    between atoms: _375  and  _377
REMARK  164  A    between atoms: _377  and  _378
REMARK  165  A    between atoms: _380  and  _382
REMARK  166  A    between atoms: _382  and  _383
REMARK  167  A    between atoms: _382  and  _385
REMARK  168  A    between atoms: _385  and  _386
REMARK  169  A    between atoms: _388  and  _390
REMARK  170  A    between atoms: _390  and  _391
REMARK  171  A    between atoms: _390  and  _393
REMARK  172  A    between atoms: _393  and  _394
REMARK  173  A    between atoms: _400  and  _402
REMARK  174  A    between atoms: _402  and  _403
REMARK  175  A    between atoms: _402  and  _405
REMARK  176  A    between atoms: _405  and  _406
REMARK  177  A    between atoms: _409  and  _411
REMARK  178  A    between atoms: _411  and  _412
REMARK  179  A    between atoms: _411  and  _414
REMARK  180  A    between atoms: _414  and  _415
REMARK  181  A    between atoms: _418  and  _420
REMARK  182  A    between atoms: _420  and  _421
REMARK  183  A    between atoms: _420  and  _423
REMARK  184  A    between atoms: _423  and  _424
REMARK  185  A    between atoms: _426  and  _428
REMARK  186  A    between atoms: _428  and  _429
REMARK  187  A    between atoms: _428  and  _431
REMARK  188  A    between atoms: _431  and  _432
REMARK  189  A    between atoms: _435  and  _437
REMARK  190  A    between atoms: _437  and  _438
REMARK  191  A    between atoms: _437  and  _440
REMARK  192  A    between atoms: _440  and  _441
REMARK  193  A    between atoms: _444  and  _446
REMARK  194  A    between atoms: _446  and  _447
REMARK  195  A    between atoms: _446  and  _449
REMARK  196  A    between atoms: _449  and  _450
REMARK  197  A    between atoms: _452  and  _454
REMARK  198  A    between atoms: _454  and  _455
REMARK  199  A    between atoms: _458  and  _460
REMARK  200  A    between atoms: _460  and  _461
REMARK  201  A    between atoms: _460  and  _463
REMARK  202  A    between atoms: _463  and  _464
REMARK  203  A    between atoms: _470  and  _472
REMARK  204  A    between atoms: _472  and  _473
REMARK  205  A    between atoms: _472  and  _475
REMARK  206  A    between atoms: _475  and  _476
REMARK  207  A    between atoms: _479  and  _481
REMARK  208  A    between atoms: _481  and  _482
REMARK  209  A    between atoms: _481  and  _484
REMARK  210  A    between atoms: _484  and  _485
REMARK  211  A    between atoms: _490  and  _492
REMARK  212  A    between atoms: _492  and  _493
REMARK  213  A    between atoms: _492  and  _495
REMARK  214  A    between atoms: _495  and  _496
REMARK  215  A    between atoms: _502  and  _504
REMARK  216  A    between atoms: _504  and  _505
REMARK  217  A    between atoms: _504  and  _507
REMARK  218  A    between atoms: _507  and  _508
REMARK  219  A    between atoms: _512  and  _513
REMARK                            x       y       z     vdW  Elec       q    Type
REMARK                         _______ _______ _______ _____ _____    ______ ____
ROOT
ATOM      1  O   HOH     1      -1.386  29.950 -26.212  0.00  0.00    +0.000 OA
ENDROOT
TORSDOF 0
REMARK  Name = ../refined-set-2016/4yo8/4yo8_pocket.pdb
REMARK  219 active torsions:
REMARK  status: ('A' for Active; 'I' for Inactive)
REMARK    1  A    between atoms: _1  and  _3
REMARK    2  A    between atoms: _3  and  _4
REMARK    3  A    between atoms: _6  and  _8
REMARK    4  A    between atoms: _8  and  _9
REMARK    5  A    between atoms: _12  and  _14
REMARK    6  A    between atoms: _14  and  _15
REMARK    7  A    between atoms: _14  and  _17
REMARK    8  A    between atoms: _17  and  _18
REMARK    9  A    between atoms: _18  and  _19
REMARK   10  A    between atoms: _21  and  _23
REMARK   11  A    between atoms: _23  and  _24
REMARK   12  A    between atoms: _23  and  _26
REMARK   13  A    between atoms: _26  and  _27
REMARK   14  A    between atoms: _27  and  _28
REMARK   15  A    between atoms: _31  and  _33
REMARK   16  A    between atoms: _33  and  _34
REMARK   17  A    between atoms: _33  and  _36
REMARK   18  A    between atoms: _36  and  _37
REMARK   19  A    between atoms: _39  and  _41
REMARK   20  A    between atoms: _41  and  _42
REMARK   21  A    between atoms: _41  and  _44
REMARK   22  A    between atoms: _44  and  _45
REMARK   23  A    between atoms: _45  and  _46
REMARK   24  A    between atoms: _46  and  _47
REMARK   25  A    between atoms: _47  and  _48
REMARK   26  A    between atoms: _52  and  _54
REMARK   27  A    between atoms: _54  and  _55
REMARK   28  A    between atoms: _54  and  _57
REMARK   29  A    between atoms: _57  and  _58
REMARK   30  A    between atoms: _61  and  _63
REMARK   31  A    between atoms: _63  and  _64
REMARK   32  A    between atoms: _66  and  _68
REMARK   33  A    between atoms: _68  and  _69
REMARK   34  A    between atoms: _68  and  _71
REMARK   35  A    between atoms: _71  and  _72
REMARK   36  A    between atoms: _72  and  _73
REMARK   37  A    between atoms: _73  and  _74
REMARK   38  A    between atoms: _74  and  _75
REMARK   39  A    between atoms: _79  and  _81
REMARK   40  A    between atoms: _81  and  _82
REMARK   41  A    between atoms: _81  and  _84
REMARK   42  A    between atoms: _84  and  _85
REMARK   43  A    between atoms: _91  and  _93
REMARK   44  A    between atoms: _93  and  _94
REMARK   45  A    between atoms: _96  and  _98
REMARK   46  A    between atoms: _98  and  _99
REMARK   47  A    between atoms: _98  and  _101
REMARK   48  A    between atoms: _104  and  _106
REMARK   49  A    between atoms: _106  and  _107
REMARK   50  A    between atoms: _110  and  _112
REMARK   51  A    between atoms: _112  and  _113
REMARK   52  A    between atoms: _115  and  _117
REMARK   53  A    between atoms: _117  and  _118
REMARK   54  A    between atoms: _117  and  _120
REMARK   55  A    between atoms: _120  and  _121
REMARK   56  A    between atoms: _123  and  _125
REMARK   57  A    between atoms: _125  and  _126
REMARK   58  A    between atoms: _125  and  _128
REMARK   59  A    between atoms: _128  and  _129
REMARK   60  A    between atoms: _132  and  _134
REMARK   61  A    between atoms: _134  and  _135
REMARK   62  A    between atoms: _134  and  _137
REMARK   63  A    between atoms: _137  and  _138
REMARK   64  A    between atoms: _143  and  _145
REMARK   65  A    between atoms: _145  and  _146
REMARK   66  A    between atoms: _149  and  _151
REMARK   67  A    between atoms: _151  and  _152
REMARK   68  A    between atoms: _151  and  _154
REMARK   69  A    between atoms: _154  and  _155
REMARK   70  A    between atoms: _157  and  _159
REMARK   71  A    between atoms: _159  and  _160
REMARK   72  A    between atoms: _162  and  _164
REMARK   73  A    between atoms: _164  and  _165
REMARK   74  A    between atoms: _164  and  _167
REMARK   75  A    between atoms: _167  and  _168
REMARK   76  A    between atoms: _171  and  _173
REMARK   77  A    between atoms: _173  and  _174
REMARK   78  A    between atoms: _173  and  _176
REMARK   79  A    between atoms: _176  and  _177
REMARK   80  A    between atoms: _177  and  _178
REMARK   81  A    between atoms: _183  and  _185
REMARK   82  A    between atoms: _185  and  _186
REMARK   83  A    between atoms: _185  and  _188
REMARK   84  A    between atoms: _188  and  _189
REMARK   85  A    between atoms: _195  and  _197
REMARK   86  A    between atoms: _197  and  _198
REMARK   87  A    between atoms: _197  and  _200
REMARK   88  A    between atoms: _203  and  _205
REMARK   89  A    between atoms: _205  and  _206
REMARK   90  A    between atoms: _205  and  _208
REMARK   91  A    between atoms: _208  and  _209
REMARK   92  A    between atoms: _214  and  _216
REMARK   93  A    between atoms: _216  and  _217
REMARK   94  A    between atoms: _216  and  _219
REMARK   95  A    between atoms: _219  and  _220
REMARK   96  A    between atoms: _222  and  _224
REMARK   97  A    between atoms: _224  and  _225
REMARK   98  A    between atoms: _224  and  _227
REMARK   99  A    between atoms: _227  and  _228
REMARK  100  A    between atoms: _228  and  _229
REMARK  101  A    between atoms: _229  and  _230
REMARK  102  A    between atoms: _230  and  _231
REMARK  103  A    between atoms: _235  and  _237
REMARK  104  A    between atoms: _237  and  _238
REMARK  105  A    between atoms: _237  and  _240
REMARK  106  A    between atoms: _240  and  _241
REMARK  107  A    between atoms: _244  and  _246
REMARK  108  A    between atoms: _246  and  _247
REMARK  109  A    between atoms: _250  and  _252
REMARK  110  A    between atoms: _252  and  _253
REMARK  111  A    between atoms: _252  and  _255
REMARK  112  A    between atoms: _258  and  _260
REMARK  113  A    between atoms: _260  and  _261
REMARK  114  A    between atoms: _260  and  _263
REMARK  115  A    between atoms: _263  and  _264
REMARK  116  A    between atoms: _264  and  _265
REMARK  117  A    between atoms: _268  and  _270
REMARK  118  A    between atoms: _270  and  _271
REMARK  119  A    between atoms: _270  and  _273
REMARK  120  A    between atoms: _273  and  _274
REMARK  121  A    between atoms: _274  and  _275
REMARK  122  A    between atoms: _277  and  _279
REMARK  123  A    between atoms: _279  and  _280
REMARK  124  A    between atoms: _279  and  _282
REMARK  125  A    between atoms: _282  and  _283
REMARK  126  A    between atoms: _283  and  _284
REMARK  127  A    between atoms: _287  and  _289
REMARK  128  A    between atoms: _289  and  _290
REMARK  129  A    between atoms: _292  and  _294
REMARK  130  A    between atoms: _294  and  _295
REMARK  131  A    between atoms: _294  and  _297
REMARK  132  A    between atoms: _297  and  _298
REMARK  133  A    between atoms: _298  and  _299
REMARK  134  A    between atoms: _299  and  _300
REMARK  135  A    between atoms: _309  and  _311
REMARK  136  A    between atoms: _311  and  _312
REMARK  137  A    between atoms: _311  and  _314
REMARK  138  A    between atoms: _314  and  _315
REMARK  139  A    between atoms: _317  and  _319
REMARK  140  A    between atoms: _319  and  _320
REMARK  141  A    between atoms: _319  and  _322
REMARK  142  A    between atoms: _322  and  _323
REMARK  143  A    between atoms: _326  and  _328
REMARK  144  A    between atoms: _328  and  _329
REMARK  145  A    between atoms: _328  and  _331
REMARK  146  A    between atoms: _331  and  _332
REMARK  147  A    between atoms: _334  and  _336
REMARK  148  A    between atoms: _336  and  _337
REMARK  149  A    between atoms: _336  and  _339
REMARK  150  A    between atoms: _339  and  _340
REMARK  151  A    between atoms: _343  and  _345
REMARK  152  A    between atoms: _345  and  _346
REMARK  153  A    between atoms: _345  and  _348
REMARK  154  A    between atoms: _348  and  _349
REMARK  155  A    between atoms: _354  and  _356
REMARK  156  A    between atoms: _356  and  _357
REMARK  157  A    between atoms: _360  and  _362
REMARK  158  A    between atoms: _362  and  _363
REMARK  159  A    between atoms: _362  and  _365
REMARK  160  A    between atoms: _365  and  _366
REMARK  161  A    between atoms: _369  and  _371
REMARK  162  A    between atoms: _371  and  _372
REMARK  163  A    between atoms: _375  and  _377
REMARK  164  A    between atoms: _377  and  _378
REMARK  165  A    between atoms: _380  and  _382
REMARK  166  A    between atoms: _382  and  _383
REMARK  167  A    between atoms: _382  and  _385
REMARK  168  A    between atoms: _385  and  _386
REMARK  169  A    between atoms: _388  and  _390
REMARK  170  A    between atoms: _390  and  _391
REMARK  171  A    between atoms: _390  and  _393
REMARK  172  A    between atoms: _393  and  _394
REMARK  173  A    between atoms: _400  and  _402
REMARK  174  A    between atoms: _402  and  _403
REMARK  175  A    between atoms: _402  and  _405
REMARK  176  A    between atoms: _405  and  _406
REMARK  177  A    between atoms: _409  and  _411
REMARK  178  A    between atoms: _411  and  _412
REMARK  179  A    between atoms: _411  and  _414
REMARK  180  A    between atoms: _414  and  _415
REMARK  181  A    between atoms: _418  and  _420
REMARK  182  A    between atoms: _420  and  _421
REMARK  183  A    between atoms: _420  and  _423
REMARK  184  A    between atoms: _423  and  _424
REMARK  185  A    between atoms: _426  and  _428
REMARK  186  A    between atoms: _428  and  _429
REMARK  187  A    between atoms: _428  and  _431
REMARK  188  A    between atoms: _431  and  _432
REMARK  189  A    between atoms: _435  and  _437
REMARK  190  A    between atoms: _437  and  _438
REMARK  191  A    between atoms: _437  and  _440
REMARK  192  A    between atoms: _440  and  _441
REMARK  193  A    between atoms: _444  and  _446
REMARK  194  A    between atoms: _446  and  _447
REMARK  195  A    between atoms: _446  and  _449
REMARK  196  A    between atoms: _449  and  _450
REMARK  197  A    between atoms: _452  and  _454
REMARK  198  A    between atoms: _454  and  _455
REMARK  199  A    between atoms: _458  and  _460
REMARK  200  A    between atoms: _460  and  _461
REMARK  201  A    between atoms: _460  and  _463
REMARK  202  A    between atoms: _463  and  _464
REMARK  203  A    between atoms: _470  and  _472
REMARK  204  A    between atoms: _472  and  _473
REMARK  205  A    between atoms: _472  and  _475
REMARK  206  A    between atoms: _475  and  _476
REMARK  207  A    between atoms: _479  and  _481
REMARK  208  A    between atoms: _481  and  _482
REMARK  209  A    between atoms: _481  and  _484
REMARK  210  A    between atoms: _484  and  _485
REMARK  211  A    between atoms: _490  and  _492
REMARK  212  A    between atoms: _492  and  _493
REMARK  213  A    between atoms: _492  and  _495
REMARK  214  A    between atoms: _495  and  _496
REMARK  215  A    between atoms: _502  and  _504
REMARK  216  A    between atoms: _504  and  _505
REMARK  217  A    between atoms: _504  and  _507
REMARK  218  A    between atoms: _507  and  _508
REMARK  219  A    between atoms: _512  and  _513
REMARK                            x       y       z     vdW  Elec       q    Type
REMARK                         _______ _______ _______ _____ _____    ______ ____
ROOT
ATOM      1  O   HOH     1     -11.383  16.564 -16.188  0.00  0.00    +0.000 OA
ENDROOT
TORSDOF 0
REMARK  Name = ../refined-set-2016/4yo8/4yo8_pocket.pdb
REMARK  219 active torsions:
REMARK  status: ('A' for Active; 'I' for Inactive)
REMARK    1  A    between atoms: _1  and  _3
REMARK    2  A    between atoms: _3  and  _4
REMARK    3  A    between atoms: _6  and  _8
REMARK    4  A    between atoms: _8  and  _9
REMARK    5  A    between atoms: _12  and  _14
REMARK    6  A    between atoms: _14  and  _15
REMARK    7  A    between atoms: _14  and  _17
REMARK    8  A    between atoms: _17  and  _18
REMARK    9  A    between atoms: _18  and  _19
REMARK   10  A    between atoms: _21  and  _23
REMARK   11  A    between atoms: _23  and  _24
REMARK   12  A    between atoms: _23  and  _26
REMARK   13  A    between atoms: _26  and  _27
REMARK   14  A    between atoms: _27  and  _28
REMARK   15  A    between atoms: _31  and  _33
REMARK   16  A    between atoms: _33  and  _34
REMARK   17  A    between atoms: _33  and  _36
REMARK   18  A    between atoms: _36  and  _37
REMARK   19  A    between atoms: _39  and  _41
REMARK   20  A    between atoms: _41  and  _42
REMARK   21  A    between atoms: _41  and  _44
REMARK   22  A    between atoms: _44  and  _45
REMARK   23  A    between atoms: _45  and  _46
REMARK   24  A    between atoms: _46  and  _47
REMARK   25  A    between atoms: _47  and  _48
REMARK   26  A    between atoms: _52  and  _54
REMARK   27  A    between atoms: _54  and  _55
REMARK   28  A    between atoms: _54  and  _57
REMARK   29  A    between atoms: _57  and  _58
REMARK   30  A    between atoms: _61  and  _63
REMARK   31  A    between atoms: _63  and  _64
REMARK   32  A    between atoms: _66  and  _68
REMARK   33  A    between atoms: _68  and  _69
REMARK   34  A    between atoms: _68  and  _71
REMARK   35  A    between atoms: _71  and  _72
REMARK   36  A    between atoms: _72  and  _73
REMARK   37  A    between atoms: _73  and  _74
REMARK   38  A    between atoms: _74  and  _75
REMARK   39  A    between atoms: _79  and  _81
REMARK   40  A    between atoms: _81  and  _82
REMARK   41  A    between atoms: _81  and  _84
REMARK   42  A    between atoms: _84  and  _85
REMARK   43  A    between atoms: _91  and  _93
REMARK   44  A    between atoms: _93  and  _94
REMARK   45  A    between atoms: _96  and  _98
REMARK   46  A    between atoms: _98  and  _99
REMARK   47  A    between atoms: _98  and  _101
REMARK   48  A    between atoms: _104  and  _106
REMARK   49  A    between atoms: _106  and  _107
REMARK   50  A    between atoms: _110  and  _112
REMARK   51  A    between atoms: _112  and  _113
REMARK   52  A    between atoms: _115  and  _117
REMARK   53  A    between atoms: _117  and  _118
REMARK   54  A    between atoms: _117  and  _120
REMARK   55  A    between atoms: _120  and  _121
REMARK   56  A    between atoms: _123  and  _125
REMARK   57  A    between atoms: _125  and  _126
REMARK   58  A    between atoms: _125  and  _128
REMARK   59  A    between atoms: _128  and  _129
REMARK   60  A    between atoms: _132  and  _134
REMARK   61  A    between atoms: _134  and  _135
REMARK   62  A    between atoms: _134  and  _137
REMARK   63  A    between atoms: _137  and  _138
REMARK   64  A    between atoms: _143  and  _145
REMARK   65  A    between atoms: _145  and  _146
REMARK   66  A    between atoms: _149  and  _151
REMARK   67  A    between atoms: _151  and  _152
REMARK   68  A    between atoms: _151  and  _154
REMARK   69  A    between atoms: _154  and  _155
REMARK   70  A    between atoms: _157  and  _159
REMARK   71  A    between atoms: _159  and  _160
REMARK   72  A    between atoms: _162  and  _164
REMARK   73  A    between atoms: _164  and  _165
REMARK   74  A    between atoms: _164  and  _167
REMARK   75  A    between atoms: _167  and  _168
REMARK   76  A    between atoms: _171  and  _173
REMARK   77  A    between atoms: _173  and  _174
REMARK   78  A    between atoms: _173  and  _176
REMARK   79  A    between atoms: _176  and  _177
REMARK   80  A    between atoms: _177  and  _178
REMARK   81  A    between atoms: _183  and  _185
REMARK   82  A    between atoms: _185  and  _186
REMARK   83  A    between atoms: _185  and  _188
REMARK   84  A    between atoms: _188  and  _189
REMARK   85  A    between atoms: _195  and  _197
REMARK   86  A    between atoms: _197  and  _198
REMARK   87  A    between atoms: _197  and  _200
REMARK   88  A    between atoms: _203  and  _205
REMARK   89  A    between atoms: _205  and  _206
REMARK   90  A    between atoms: _205  and  _208
REMARK   91  A    between atoms: _208  and  _209
REMARK   92  A    between atoms: _214  and  _216
REMARK   93  A    between atoms: _216  and  _217
REMARK   94  A    between atoms: _216  and  _219
REMARK   95  A    between atoms: _219  and  _220
REMARK   96  A    between atoms: _222  and  _224
REMARK   97  A    between atoms: _224  and  _225
REMARK   98  A    between atoms: _224  and  _227
REMARK   99  A    between atoms: _227  and  _228
REMARK  100  A    between atoms: _228  and  _229
REMARK  101  A    between atoms: _229  and  _230
REMARK  102  A    between atoms: _230  and  _231
REMARK  103  A    between atoms: _235  and  _237
REMARK  104  A    between atoms: _237  and  _238
REMARK  105  A    between atoms: _237  and  _240
REMARK  106  A    between atoms: _240  and  _241
REMARK  107  A    between atoms: _244  and  _246
REMARK  108  A    between atoms: _246  and  _247
REMARK  109  A    between atoms: _250  and  _252
REMARK  110  A    between atoms: _252  and  _253
REMARK  111  A    between atoms: _252  and  _255
REMARK  112  A    between atoms: _258  and  _260
REMARK  113  A    between atoms: _260  and  _261
REMARK  114  A    between atoms: _260  and  _263
REMARK  115  A    between atoms: _263  and  _264
REMARK  116  A    between atoms: _264  and  _265
REMARK  117  A    between atoms: _268  and  _270
REMARK  118  A    between atoms: _270  and  _271
REMARK  119  A    between atoms: _270  and  _273
REMARK  120  A    between atoms: _273  and  _274
REMARK  121  A    between atoms: _274  and  _275
REMARK  122  A    between atoms: _277  and  _279
REMARK  123  A    between atoms: _279  and  _280
REMARK  124  A    between atoms: _279  and  _282
REMARK  125  A    between atoms: _282  and  _283
REMARK  126  A    between atoms: _283  and  _284
REMARK  127  A    between atoms: _287  and  _289
REMARK  128  A    between atoms: _289  and  _290
REMARK  129  A    between atoms: _292  and  _294
REMARK  130  A    between atoms: _294  and  _295
REMARK  131  A    between atoms: _294  and  _297
REMARK  132  A    between atoms: _297  and  _298
REMARK  133  A    between atoms: _298  and  _299
REMARK  134  A    between atoms: _299  and  _300
REMARK  135  A    between atoms: _309  and  _311
REMARK  136  A    between atoms: _311  and  _312
REMARK  137  A    between atoms: _311  and  _314
REMARK  138  A    between atoms: _314  and  _315
REMARK  139  A    between atoms: _317  and  _319
REMARK  140  A    between atoms: _319  and  _320
REMARK  141  A    between atoms: _319  and  _322
REMARK  142  A    between atoms: _322  and  _323
REMARK  143  A    between atoms: _326  and  _328
REMARK  144  A    between atoms: _328  and  _329
REMARK  145  A    between atoms: _328  and  _331
REMARK  146  A    between atoms: _331  and  _332
REMARK  147  A    between atoms: _334  and  _336
REMARK  148  A    between atoms: _336  and  _337
REMARK  149  A    between atoms: _336  and  _339
REMARK  150  A    between atoms: _339  and  _340
REMARK  151  A    between atoms: _343  and  _345
REMARK  152  A    between atoms: _345  and  _346
REMARK  153  A    between atoms: _345  and  _348
REMARK  154  A    between atoms: _348  and  _349
REMARK  155  A    between atoms: _354  and  _356
REMARK  156  A    between atoms: _356  and  _357
REMARK  157  A    between atoms: _360  and  _362
REMARK  158  A    between atoms: _362  and  _363
REMARK  159  A    between atoms: _362  and  _365
REMARK  160  A    between atoms: _365  and  _366
REMARK  161  A    between atoms: _369  and  _371
REMARK  162  A    between atoms: _371  and  _372
REMARK  163  A    between atoms: _375  and  _377
REMARK  164  A    between atoms: _377  and  _378
REMARK  165  A    between atoms: _380  and  _382
REMARK  166  A    between atoms: _382  and  _383
REMARK  167  A    between atoms: _382  and  _385
REMARK  168  A    between atoms: _385  and  _386
REMARK  169  A    between atoms: _388  and  _390
REMARK  170  A    between atoms: _390  and  _391
REMARK  171  A    between atoms: _390  and  _393
REMARK  172  A    between atoms: _393  and  _394
REMARK  173  A    between atoms: _400  and  _402
REMARK  174  A    between atoms: _402  and  _403
REMARK  175  A    between atoms: _402  and  _405
REMARK  176  A    between atoms: _405  and  _406
REMARK  177  A    between atoms: _409  and  _411
REMARK  178  A    between atoms: _411  and  _412
REMARK  179  A    between atoms: _411  and  _414
REMARK  180  A    between atoms: _414  and  _415
REMARK  181  A    between atoms: _418  and  _420
REMARK  182  A    between atoms: _420  and  _421
REMARK  183  A    between atoms: _420  and  _423
REMARK  184  A    between atoms: _423  and  _424
REMARK  185  A    between atoms: _426  and  _428
REMARK  186  A    between atoms: _428  and  _429
REMARK  187  A    between atoms: _428  and  _431
REMARK  188  A    between atoms: _431  and  _432
REMARK  189  A    between atoms: _435  and  _437
REMARK  190  A    between atoms: _437  and  _438
REMARK  191  A    between atoms: _437  and  _440
REMARK  192  A    between atoms: _440  and  _441
REMARK  193  A    between atoms: _444  and  _446
REMARK  194  A    between atoms: _446  and  _447
REMARK  195  A    between atoms: _446  and  _449
REMARK  196  A    between atoms: _449  and  _450
REMARK  197  A    between atoms: _452  and  _454
REMARK  198  A    between atoms: _454  and  _455
REMARK  199  A    between atoms: _458  and  _460
REMARK  200  A    between atoms: _460  and  _461
REMARK  201  A    between atoms: _460  and  _463
REMARK  202  A    between atoms: _463  and  _464
REMARK  203  A    between atoms: _470  and  _472
REMARK  204  A    between atoms: _472  and  _473
REMARK  205  A    between atoms: _472  and  _475
REMARK  206  A    between atoms: _475  and  _476
REMARK  207  A    between atoms: _479  and  _481
REMARK  208  A    between atoms: _481  and  _482
REMARK  209  A    between atoms: _481  and  _484
REMARK  210  A    between atoms: _484  and  _485
REMARK  211  A    between atoms: _490  and  _492
REMARK  212  A    between atoms: _492  and  _493
REMARK  213  A    between atoms: _492  and  _495
REMARK  214  A    between atoms: _495  and  _496
REMARK  215  A    between atoms: _502  and  _504
REMARK  216  A    between atoms: _504  and  _505
REMARK  217  A    between atoms: _504  and  _507
REMARK  218  A    between atoms: _507  and  _508
REMARK  219  A    between atoms: _512  and  _513
REMARK                            x       y       z     vdW  Elec       q    Type
REMARK                         _______ _______ _______ _____ _____    ______ ____
ROOT
ATOM      1  O   HOH     1      -7.656  15.914 -15.803  0.00  0.00    +0.000 OA
ENDROOT
TORSDOF 0
REMARK  Name = ../refined-set-2016/4yo8/4yo8_pocket.pdb
REMARK  219 active torsions:
REMARK  status: ('A' for Active; 'I' for Inactive)
REMARK    1  A    between atoms: _1  and  _3
REMARK    2  A    between atoms: _3  and  _4
REMARK    3  A    between atoms: _6  and  _8
REMARK    4  A    between atoms: _8  and  _9
REMARK    5  A    between atoms: _12  and  _14
REMARK    6  A    between atoms: _14  and  _15
REMARK    7  A    between atoms: _14  and  _17
REMARK    8  A    between atoms: _17  and  _18
REMARK    9  A    between atoms: _18  and  _19
REMARK   10  A    between atoms: _21  and  _23
REMARK   11  A    between atoms: _23  and  _24
REMARK   12  A    between atoms: _23  and  _26
REMARK   13  A    between atoms: _26  and  _27
REMARK   14  A    between atoms: _27  and  _28
REMARK   15  A    between atoms: _31  and  _33
REMARK   16  A    between atoms: _33  and  _34
REMARK   17  A    between atoms: _33  and  _36
REMARK   18  A    between atoms: _36  and  _37
REMARK   19  A    between atoms: _39  and  _41
REMARK   20  A    between atoms: _41  and  _42
REMARK   21  A    between atoms: _41  and  _44
REMARK   22  A    between atoms: _44  and  _45
REMARK   23  A    between atoms: _45  and  _46
REMARK   24  A    between atoms: _46  and  _47
REMARK   25  A    between atoms: _47  and  _48
REMARK   26  A    between atoms: _52  and  _54
REMARK   27  A    between atoms: _54  and  _55
REMARK   28  A    between atoms: _54  and  _57
REMARK   29  A    between atoms: _57  and  _58
REMARK   30  A    between atoms: _61  and  _63
REMARK   31  A    between atoms: _63  and  _64
REMARK   32  A    between atoms: _66  and  _68
REMARK   33  A    between atoms: _68  and  _69
REMARK   34  A    between atoms: _68  and  _71
REMARK   35  A    between atoms: _71  and  _72
REMARK   36  A    between atoms: _72  and  _73
REMARK   37  A    between atoms: _73  and  _74
REMARK   38  A    between atoms: _74  and  _75
REMARK   39  A    between atoms: _79  and  _81
REMARK   40  A    between atoms: _81  and  _82
REMARK   41  A    between atoms: _81  and  _84
REMARK   42  A    between atoms: _84  and  _85
REMARK   43  A    between atoms: _91  and  _93
REMARK   44  A    between atoms: _93  and  _94
REMARK   45  A    between atoms: _96  and  _98
REMARK   46  A    between atoms: _98  and  _99
REMARK   47  A    between atoms: _98  and  _101
REMARK   48  A    between atoms: _104  and  _106
REMARK   49  A    between atoms: _106  and  _107
REMARK   50  A    between atoms: _110  and  _112
REMARK   51  A    between atoms: _112  and  _113
REMARK   52  A    between atoms: _115  and  _117
REMARK   53  A    between atoms: _117  and  _118
REMARK   54  A    between atoms: _117  and  _120
REMARK   55  A    between atoms: _120  and  _121
REMARK   56  A    between atoms: _123  and  _125
REMARK   57  A    between atoms: _125  and  _126
REMARK   58  A    between atoms: _125  and  _128
REMARK   59  A    between atoms: _128  and  _129
REMARK   60  A    between atoms: _132  and  _134
REMARK   61  A    between atoms: _134  and  _135
REMARK   62  A    between atoms: _134  and  _137
REMARK   63  A    between atoms: _137  and  _138
REMARK   64  A    between atoms: _143  and  _145
REMARK   65  A    between atoms: _145  and  _146
REMARK   66  A    between atoms: _149  and  _151
REMARK   67  A    between atoms: _151  and  _152
REMARK   68  A    between atoms: _151  and  _154
REMARK   69  A    between atoms: _154  and  _155
REMARK   70  A    between atoms: _157  and  _159
REMARK   71  A    between atoms: _159  and  _160
REMARK   72  A    between atoms: _162  and  _164
REMARK   73  A    between atoms: _164  and  _165
REMARK   74  A    between atoms: _164  and  _167
REMARK   75  A    between atoms: _167  and  _168
REMARK   76  A    between atoms: _171  and  _173
REMARK   77  A    between atoms: _173  and  _174
REMARK   78  A    between atoms: _173  and  _176
REMARK   79  A    between atoms: _176  and  _177
REMARK   80  A    between atoms: _177  and  _178
REMARK   81  A    between atoms: _183  and  _185
REMARK   82  A    between atoms: _185  and  _186
REMARK   83  A    between atoms: _185  and  _188
REMARK   84  A    between atoms: _188  and  _189
REMARK   85  A    between atoms: _195  and  _197
REMARK   86  A    between atoms: _197  and  _198
REMARK   87  A    between atoms: _197  and  _200
REMARK   88  A    between atoms: _203  and  _205
REMARK   89  A    between atoms: _205  and  _206
REMARK   90  A    between atoms: _205  and  _208
REMARK   91  A    between atoms: _208  and  _209
REMARK   92  A    between atoms: _214  and  _216
REMARK   93  A    between atoms: _216  and  _217
REMARK   94  A    between atoms: _216  and  _219
REMARK   95  A    between atoms: _219  and  _220
REMARK   96  A    between atoms: _222  and  _224
REMARK   97  A    between atoms: _224  and  _225
REMARK   98  A    between atoms: _224  and  _227
REMARK   99  A    between atoms: _227  and  _228
REMARK  100  A    between atoms: _228  and  _229
REMARK  101  A    between atoms: _229  and  _230
REMARK  102  A    between atoms: _230  and  _231
REMARK  103  A    between atoms: _235  and  _237
REMARK  104  A    between atoms: _237  and  _238
REMARK  105  A    between atoms: _237  and  _240
REMARK  106  A    between atoms: _240  and  _241
REMARK  107  A    between atoms: _244  and  _246
REMARK  108  A    between atoms: _246  and  _247
REMARK  109  A    between atoms: _250  and  _252
REMARK  110  A    between atoms: _252  and  _253
REMARK  111  A    between atoms: _252  and  _255
REMARK  112  A    between atoms: _258  and  _260
REMARK  113  A    between atoms: _260  and  _261
REMARK  114  A    between atoms: _260  and  _263
REMARK  115  A    between atoms: _263  and  _264
REMARK  116  A    between atoms: _264  and  _265
REMARK  117  A    between atoms: _268  and  _270
REMARK  118  A    between atoms: _270  and  _271
REMARK  119  A    between atoms: _270  and  _273
REMARK  120  A    between atoms: _273  and  _274
REMARK  121  A    between atoms: _274  and  _275
REMARK  122  A    between atoms: _277  and  _279
REMARK  123  A    between atoms: _279  and  _280
REMARK  124  A    between atoms: _279  and  _282
REMARK  125  A    between atoms: _282  and  _283
REMARK  126  A    between atoms: _283  and  _284
REMARK  127  A    between atoms: _287  and  _289
REMARK  128  A    between atoms: _289  and  _290
REMARK  129  A    between atoms: _292  and  _294
REMARK  130  A    between atoms: _294  and  _295
REMARK  131  A    between atoms: _294  and  _297
REMARK  132  A    between atoms: _297  and  _298
REMARK  133  A    between atoms: _298  and  _299
REMARK  134  A    between atoms: _299  and  _300
REMARK  135  A    between atoms: _309  and  _311
REMARK  136  A    between atoms: _311  and  _312
REMARK  137  A    between atoms: _311  and  _314
REMARK  138  A    between atoms: _314  and  _315
REMARK  139  A    between atoms: _317  and  _319
REMARK  140  A    between atoms: _319  and  _320
REMARK  141  A    between atoms: _319  and  _322
REMARK  142  A    between atoms: _322  and  _323
REMARK  143  A    between atoms: _326  and  _328
REMARK  144  A    between atoms: _328  and  _329
REMARK  145  A    between atoms: _328  and  _331
REMARK  146  A    between atoms: _331  and  _332
REMARK  147  A    between atoms: _334  and  _336
REMARK  148  A    between atoms: _336  and  _337
REMARK  149  A    between atoms: _336  and  _339
REMARK  150  A    between atoms: _339  and  _340
REMARK  151  A    between atoms: _343  and  _345
REMARK  152  A    between atoms: _345  and  _346
REMARK  153  A    between atoms: _345  and  _348
REMARK  154  A    between atoms: _348  and  _349
REMARK  155  A    between atoms: _354  and  _356
REMARK  156  A    between atoms: _356  and  _357
REMARK  157  A    between atoms: _360  and  _362
REMARK  158  A    between atoms: _362  and  _363
REMARK  159  A    between atoms: _362  and  _365
REMARK  160  A    between atoms: _365  and  _366
REMARK  161  A    between atoms: _369  and  _371
REMARK  162  A    between atoms: _371  and  _372
REMARK  163  A    between atoms: _375  and  _377
REMARK  164  A    between atoms: _377  and  _378
REMARK  165  A    between atoms: _380  and  _382
REMARK  166  A    between atoms: _382  and  _383
REMARK  167  A    between atoms: _382  and  _385
REMARK  168  A    between atoms: _385  and  _386
REMARK  169  A    between atoms: _388  and  _390
REMARK  170  A    between atoms: _390  and  _391
REMARK  171  A    between atoms: _390  and  _393
REMARK  172  A    between atoms: _393  and  _394
REMARK  173  A    between atoms: _400  and  _402
REMARK  174  A    between atoms: _402  and  _403
REMARK  175  A    between atoms: _402  and  _405
REMARK  176  A    between atoms: _405  and  _406
REMARK  177  A    between atoms: _409  and  _411
REMARK  178  A    between atoms: _411  and  _412
REMARK  179  A    between atoms: _411  and  _414
REMARK  180  A    between atoms: _414  and  _415
REMARK  181  A    between atoms: _418  and  _420
REMARK  182  A    between atoms: _420  and  _421
REMARK  183  A    between atoms: _420  and  _423
REMARK  184  A    between atoms: _423  and  _424
REMARK  185  A    between atoms: _426  and  _428
REMARK  186  A    between atoms: _428  and  _429
REMARK  187  A    between atoms: _428  and  _431
REMARK  188  A    between atoms: _431  and  _432
REMARK  189  A    between atoms: _435  and  _437
REMARK  190  A    between atoms: _437  and  _438
REMARK  191  A    between atoms: _437  and  _440
REMARK  192  A    between atoms: _440  and  _441
REMARK  193  A    between atoms: _444  and  _446
REMARK  194  A    between atoms: _446  and  _447
REMARK  195  A    between atoms: _446  and  _449
REMARK  196  A    between atoms: _449  and  _450
REMARK  197  A    between atoms: _452  and  _454
REMARK  198  A    between atoms: _454  and  _455
REMARK  199  A    between atoms: _458  and  _460
REMARK  200  A    between atoms: _460  and  _461
REMARK  201  A    between atoms: _460  and  _463
REMARK  202  A    between atoms: _463  and  _464
REMARK  203  A    between atoms: _470  and  _472
REMARK  204  A    between atoms: _472  and  _473
REMARK  205  A    between atoms: _472  and  _475
REMARK  206  A    between atoms: _475  and  _476
REMARK  207  A    between atoms: _479  and  _481
REMARK  208  A    between atoms: _481  and  _482
REMARK  209  A    between atoms: _481  and  _484
REMARK  210  A    between atoms: _484  and  _485
REMARK  211  A    between atoms: _490  and  _492
REMARK  212  A    between atoms: _492  and  _493
REMARK  213  A    between atoms: _492  and  _495
REMARK  214  A    between atoms: _495  and  _496
REMARK  215  A    between atoms: _502  and  _504
REMARK  216  A    between atoms: _504  and  _505
REMARK  217  A    between atoms: _504  and  _507
REMARK  218  A    between atoms: _507  and  _508
REMARK  219  A    between atoms: _512  and  _513
REMARK                            x       y       z     vdW  Elec       q    Type
REMARK                         _______ _______ _______ _____ _____    ______ ____
ROOT
ATOM      1  O   HOH     1      -4.432  27.707 -21.006  0.00  0.00    +0.000 OA
ENDROOT
TORSDOF 0
