REMARK  Name = ../refined-set-2016/4p58/4p58_pocket.pdb
REMARK  113 active torsions:
REMARK  status: ('A' for Active; 'I' for Inactive)
REMARK    1  A    between atoms: _1  and  _3
REMARK    2  A    between atoms: _3  and  _4
REMARK    3  A    between atoms: _3  and  _6
REMARK    4  A    between atoms: _6  and  _7
REMARK    5  A    between atoms: _7  and  _8
REMARK    6  A    between atoms: _11  and  _13
REMARK    7  A    between atoms: _13  and  _14
REMARK    8  A    between atoms: _13  and  _16
REMARK    9  A    between atoms: _16  and  _17
REMARK   10  A    between atoms: _20  and  _22
REMARK   11  A    between atoms: _22  and  _23
REMARK   12  A    between atoms: _25  and  _27
REMARK   13  A    between atoms: _27  and  _28
REMARK   14  A    between atoms: _31  and  _33
REMARK   15  A    between atoms: _33  and  _34
REMARK   16  A    between atoms: _33  and  _36
REMARK   17  A    between atoms: _36  and  _37
REMARK   18  A    between atoms: _42  and  _43
REMARK   19  A    between atoms: _45  and  _47
REMARK   20  A    between atoms: _47  and  _48
REMARK   21  A    between atoms: _47  and  _50
REMARK   22  A    between atoms: _50  and  _51
REMARK   23  A    between atoms: _54  and  _56
REMARK   24  A    between atoms: _56  and  _57
REMARK   25  A    between atoms: _56  and  _59
REMARK   26  A    between atoms: _59  and  _60
REMARK   27  A    between atoms: _60  and  _61
REMARK   28  A    between atoms: _63  and  _65
REMARK   29  A    between atoms: _65  and  _66
REMARK   30  A    between atoms: _65  and  _68
REMARK   31  A    between atoms: _68  and  _69
REMARK   32  A    between atoms: _69  and  _70
REMARK   33  A    between atoms: _73  and  _75
REMARK   34  A    between atoms: _75  and  _76
REMARK   35  A    between atoms: _75  and  _78
REMARK   36  A    between atoms: _78  and  _79
REMARK   37  A    between atoms: _82  and  _84
REMARK   38  A    between atoms: _84  and  _85
REMARK   39  A    between atoms: _84  and  _87
REMARK   40  A    between atoms: _87  and  _88
REMARK   41  A    between atoms: _93  and  _95
REMARK   42  A    between atoms: _95  and  _96
REMARK   43  A    between atoms: _95  and  _98
REMARK   44  A    between atoms: _98  and  _99
REMARK   45  A    between atoms: _104  and  _105
REMARK   46  A    between atoms: _107  and  _109
REMARK   47  A    between atoms: _109  and  _110
REMARK   48  A    between atoms: _113  and  _115
REMARK   49  A    between atoms: _115  and  _116
REMARK   50  A    between atoms: _115  and  _118
REMARK   51  A    between atoms: _118  and  _119
REMARK   52  A    between atoms: _122  and  _124
REMARK   53  A    between atoms: _124  and  _125
REMARK   54  A    between atoms: _124  and  _127
REMARK   55  A    between atoms: _127  and  _128
REMARK   56  A    between atoms: _131  and  _133
REMARK   57  A    between atoms: _133  and  _134
REMARK   58  A    between atoms: _136  and  _138
REMARK   59  A    between atoms: _138  and  _139
REMARK   60  A    between atoms: _142  and  _144
REMARK   61  A    between atoms: _144  and  _145
REMARK   62  A    between atoms: _144  and  _147
REMARK   63  A    between atoms: _147  and  _148
REMARK   64  A    between atoms: _150  and  _152
REMARK   65  A    between atoms: _152  and  _153
REMARK   66  A    between atoms: _152  and  _155
REMARK   67  A    between atoms: _155  and  _156
REMARK   68  A    between atoms: _156  and  _157
REMARK   69  A    between atoms: _162  and  _164
REMARK   70  A    between atoms: _164  and  _165
REMARK   71  A    between atoms: _164  and  _167
REMARK   72  A    between atoms: _167  and  _168
REMARK   73  A    between atoms: _171  and  _173
REMARK   74  A    between atoms: _173  and  _174
REMARK   75  A    between atoms: _173  and  _176
REMARK   76  A    between atoms: _176  and  _177
REMARK   77  A    between atoms: _180  and  _182
REMARK   78  A    between atoms: _182  and  _183
REMARK   79  A    between atoms: _182  and  _185
REMARK   80  A    between atoms: _185  and  _186
REMARK   81  A    between atoms: _189  and  _191
REMARK   82  A    between atoms: _191  and  _192
REMARK   83  A    between atoms: _191  and  _194
REMARK   84  A    between atoms: _194  and  _195
REMARK   85  A    between atoms: _198  and  _200
REMARK   86  A    between atoms: _200  and  _201
REMARK   87  A    between atoms: _200  and  _203
REMARK   88  A    between atoms: _203  and  _204
REMARK   89  A    between atoms: _209  and  _211
REMARK   90  A    between atoms: _211  and  _212
REMARK   91  A    between atoms: _211  and  _214
REMARK   92  A    between atoms: _214  and  _215
REMARK   93  A    between atoms: _225  and  _227
REMARK   94  A    between atoms: _227  and  _228
REMARK   95  A    between atoms: _227  and  _230
REMARK   96  A    between atoms: _230  and  _231
REMARK   97  A    between atoms: _231  and  _232
REMARK   98  A    between atoms: _232  and  _233
REMARK   99  A    between atoms: _233  and  _234
REMARK  100  A    between atoms: _238  and  _240
REMARK  101  A    between atoms: _240  and  _241
REMARK  102  A    between atoms: _240  and  _243
REMARK  103  A    between atoms: _243  and  _244
REMARK  104  A    between atoms: _247  and  _249
REMARK  105  A    between atoms: _249  and  _250
REMARK  106  A    between atoms: _249  and  _252
REMARK  107  A    between atoms: _252  and  _253
REMARK  108  A    between atoms: _253  and  _254
REMARK  109  A    between atoms: _254  and  _255
REMARK  110  A    between atoms: _264  and  _266
REMARK  111  A    between atoms: _266  and  _267
REMARK  112  A    between atoms: _266  and  _269
REMARK  113  A    between atoms: _269  and  _270
REMARK                            x       y       z     vdW  Elec       q    Type
REMARK                         _______ _______ _______ _____ _____    ______ ____
ROOT
ATOM      1  CA  GLY A   3      12.493  17.513  20.094  0.00  0.00    +0.176 C 
ENDROOT
BRANCH   1   2
ATOM      2  C   GLY A   3      11.582  17.660  21.296  0.00  0.00    +0.243 C 
ATOM      3  N   ALA A   4      11.461  18.876  21.819  0.00  0.00    -0.297 N 
ATOM      4  H   ALA A   4      11.981  19.665  21.385  0.00  0.00    +0.150 HD
ATOM      5  O   GLY A   3      10.990  16.688  21.742  0.00  0.00    -0.273 OA
BRANCH   3   6
ATOM      6  CA  ALA A   4      10.617  19.139  22.990  0.00  0.00    +0.149 C 
ATOM      7  CB  ALA A   4      11.433  19.829  24.062  0.00  0.00    +0.031 C 
BRANCH   6   8
ATOM      8  C   ALA A   4       9.355  19.952  22.696  0.00  0.00    +0.241 C 
ATOM      9  O   ALA A   4       8.295  19.661  23.251  0.00  0.00    -0.273 OA
ATOM     10  N   TYR A   5       9.472  20.983  21.859  0.00  0.00    -0.298 N 
ATOM     11  H   TYR A   5      10.395  21.168  21.416  0.00  0.00    +0.150 HD
BRANCH  10  12
ATOM     12  CA  TYR A   5       8.339  21.870  21.539  0.00  0.00    +0.141 C 
BRANCH  12  13
ATOM     13  C   TYR A   5       7.774  22.493  22.814  0.00  0.00    +0.227 C 
ATOM     14  O   TYR A   5       8.527  23.099  23.564  0.00  0.00    -0.286 OA
ENDBRANCH  12  13
BRANCH  12  15
ATOM     15  CB  TYR A   5       7.267  21.158  20.698  0.00  0.00    +0.054 C 
BRANCH  15  16
ATOM     16  CG  TYR A   5       7.851  20.510  19.467  0.00  0.00    -0.020 A 
ATOM     17  CD2 TYR A   5       8.158  19.158  19.467  0.00  0.00    -0.001 A 
ATOM     18  CE2 TYR A   5       8.723  18.552  18.367  0.00  0.00    +0.036 A 
ATOM     19  CZ  TYR A   5       8.996  19.298  17.251  0.00  0.00    +0.134 A 
ATOM     20  CE1 TYR A   5       8.714  20.656  17.214  0.00  0.00    +0.036 A 
ATOM     21  CD1 TYR A   5       8.150  21.257  18.326  0.00  0.00    -0.001 A 
BRANCH  19  22
ATOM     22  OH  TYR A   5       9.556  18.658  16.191  0.00  0.00    -0.506 OA
ATOM     23  HH  TYR A   5       9.701  19.305  15.456  0.00  0.00    +0.292 HD
ENDBRANCH  19  22
ENDBRANCH  15  16
ENDBRANCH  12  15
ENDBRANCH  10  12
ENDBRANCH   6   8
ENDBRANCH   3   6
ENDBRANCH   1   2
BRANCH   1  25
ATOM     24  C   LEU A   2      13.537  15.305  19.979  0.00  0.00    +0.241 C 
ATOM     25  N   GLY A   3      13.582  16.582  20.354  0.00  0.00    -0.295 N 
ATOM     26  H   GLY A   3      14.427  16.928  20.852  0.00  0.00    +0.150 HD
ATOM     27  O   LEU A   2      12.623  14.828  19.333  0.00  0.00    -0.273 OA
BRANCH  24  28
ATOM     28  CA  LEU A   2      14.672  14.424  20.444  0.00  0.00    +0.149 C 
BRANCH  28  31
ATOM     29  C   GLU A   1      14.425  13.668  22.747  0.00  0.00    +0.238 C 
ATOM     30  O   GLU A   1      15.158  14.550  23.182  0.00  0.00    -0.274 OA
ATOM     31  N   LEU A   2      14.137  13.531  21.458  0.00  0.00    -0.297 N 
ATOM     32  H   LEU A   2      13.507  12.758  21.164  0.00  0.00    +0.150 HD
BRANCH  29  33
ATOM     33  CA  GLU A   1      13.782  12.658  23.682  0.00  0.00    +0.145 C 
BRANCH  33  34
ATOM     34  N   GLU A   1      14.821  12.089  24.533  0.00  0.00    -0.238 NA
ATOM     35  H   GLU A   1      15.301  12.710  25.215  0.00  0.00    +0.142 HD
ENDBRANCH  33  34
BRANCH  33  36
ATOM     36  CB  GLU A   1      12.724  13.354  24.535  0.00  0.00    +0.038 C 
BRANCH  36  37
ATOM     37  CG  GLU A   1      11.655  14.095  23.749  0.00  0.00    +0.116 C 
BRANCH  37  38
ATOM     38  CD  GLU A   1      10.663  14.803  24.647  0.00  0.00    +0.365 C 
ATOM     39  OE2 GLU A   1      11.035  15.134  25.793  0.00  0.00    -0.246 OA
ATOM     40  OE1 GLU A   1       9.510  15.025  24.213  0.00  0.00    -0.246 OA
ENDBRANCH  37  38
ENDBRANCH  36  37
ENDBRANCH  33  36
ENDBRANCH  29  33
ENDBRANCH  28  31
BRANCH  28  41
ATOM     41  CB  LEU A   2      15.254  13.605  19.303  0.00  0.00    +0.029 C 
BRANCH  41  42
ATOM     42  CG  LEU A   2      16.391  12.668  19.729  0.00  0.00    +0.002 C 
ATOM     43  CD2 LEU A   2      17.548  13.456  20.320  0.00  0.00    +0.000 C 
ATOM     44  CD1 LEU A   2      16.864  11.801  18.563  0.00  0.00    +0.000 C 
ENDBRANCH  41  42
ENDBRANCH  28  41
ENDBRANCH  24  28
ENDBRANCH   1  25
TORSDOF 18
REMARK  Name = ../refined-set-2016/4p58/4p58_pocket.pdb
REMARK  113 active torsions:
REMARK  status: ('A' for Active; 'I' for Inactive)
REMARK    1  A    between atoms: _1  and  _3
REMARK    2  A    between atoms: _3  and  _4
REMARK    3  A    between atoms: _3  and  _6
REMARK    4  A    between atoms: _6  and  _7
REMARK    5  A    between atoms: _7  and  _8
REMARK    6  A    between atoms: _11  and  _13
REMARK    7  A    between atoms: _13  and  _14
REMARK    8  A    between atoms: _13  and  _16
REMARK    9  A    between atoms: _16  and  _17
REMARK   10  A    between atoms: _20  and  _22
REMARK   11  A    between atoms: _22  and  _23
REMARK   12  A    between atoms: _25  and  _27
REMARK   13  A    between atoms: _27  and  _28
REMARK   14  A    between atoms: _31  and  _33
REMARK   15  A    between atoms: _33  and  _34
REMARK   16  A    between atoms: _33  and  _36
REMARK   17  A    between atoms: _36  and  _37
REMARK   18  A    between atoms: _42  and  _43
REMARK   19  A    between atoms: _45  and  _47
REMARK   20  A    between atoms: _47  and  _48
REMARK   21  A    between atoms: _47  and  _50
REMARK   22  A    between atoms: _50  and  _51
REMARK   23  A    between atoms: _54  and  _56
REMARK   24  A    between atoms: _56  and  _57
REMARK   25  A    between atoms: _56  and  _59
REMARK   26  A    between atoms: _59  and  _60
REMARK   27  A    between atoms: _60  and  _61
REMARK   28  A    between atoms: _63  and  _65
REMARK   29  A    between atoms: _65  and  _66
REMARK   30  A    between atoms: _65  and  _68
REMARK   31  A    between atoms: _68  and  _69
REMARK   32  A    between atoms: _69  and  _70
REMARK   33  A    between atoms: _73  and  _75
REMARK   34  A    between atoms: _75  and  _76
REMARK   35  A    between atoms: _75  and  _78
REMARK   36  A    between atoms: _78  and  _79
REMARK   37  A    between atoms: _82  and  _84
REMARK   38  A    between atoms: _84  and  _85
REMARK   39  A    between atoms: _84  and  _87
REMARK   40  A    between atoms: _87  and  _88
REMARK   41  A    between atoms: _93  and  _95
REMARK   42  A    between atoms: _95  and  _96
REMARK   43  A    between atoms: _95  and  _98
REMARK   44  A    between atoms: _98  and  _99
REMARK   45  A    between atoms: _104  and  _105
REMARK   46  A    between atoms: _107  and  _109
REMARK   47  A    between atoms: _109  and  _110
REMARK   48  A    between atoms: _113  and  _115
REMARK   49  A    between atoms: _115  and  _116
REMARK   50  A    between atoms: _115  and  _118
REMARK   51  A    between atoms: _118  and  _119
REMARK   52  A    between atoms: _122  and  _124
REMARK   53  A    between atoms: _124  and  _125
REMARK   54  A    between atoms: _124  and  _127
REMARK   55  A    between atoms: _127  and  _128
REMARK   56  A    between atoms: _131  and  _133
REMARK   57  A    between atoms: _133  and  _134
REMARK   58  A    between atoms: _136  and  _138
REMARK   59  A    between atoms: _138  and  _139
REMARK   60  A    between atoms: _142  and  _144
REMARK   61  A    between atoms: _144  and  _145
REMARK   62  A    between atoms: _144  and  _147
REMARK   63  A    between atoms: _147  and  _148
REMARK   64  A    between atoms: _150  and  _152
REMARK   65  A    between atoms: _152  and  _153
REMARK   66  A    between atoms: _152  and  _155
REMARK   67  A    between atoms: _155  and  _156
REMARK   68  A    between atoms: _156  and  _157
REMARK   69  A    between atoms: _162  and  _164
REMARK   70  A    between atoms: _164  and  _165
REMARK   71  A    between atoms: _164  and  _167
REMARK   72  A    between atoms: _167  and  _168
REMARK   73  A    between atoms: _171  and  _173
REMARK   74  A    between atoms: _173  and  _174
REMARK   75  A    between atoms: _173  and  _176
REMARK   76  A    between atoms: _176  and  _177
REMARK   77  A    between atoms: _180  and  _182
REMARK   78  A    between atoms: _182  and  _183
REMARK   79  A    between atoms: _182  and  _185
REMARK   80  A    between atoms: _185  and  _186
REMARK   81  A    between atoms: _189  and  _191
REMARK   82  A    between atoms: _191  and  _192
REMARK   83  A    between atoms: _191  and  _194
REMARK   84  A    between atoms: _194  and  _195
REMARK   85  A    between atoms: _198  and  _200
REMARK   86  A    between atoms: _200  and  _201
REMARK   87  A    between atoms: _200  and  _203
REMARK   88  A    between atoms: _203  and  _204
REMARK   89  A    between atoms: _209  and  _211
REMARK   90  A    between atoms: _211  and  _212
REMARK   91  A    between atoms: _211  and  _214
REMARK   92  A    between atoms: _214  and  _215
REMARK   93  A    between atoms: _225  and  _227
REMARK   94  A    between atoms: _227  and  _228
REMARK   95  A    between atoms: _227  and  _230
REMARK   96  A    between atoms: _230  and  _231
REMARK   97  A    between atoms: _231  and  _232
REMARK   98  A    between atoms: _232  and  _233
REMARK   99  A    between atoms: _233  and  _234
REMARK  100  A    between atoms: _238  and  _240
REMARK  101  A    between atoms: _240  and  _241
REMARK  102  A    between atoms: _240  and  _243
REMARK  103  A    between atoms: _243  and  _244
REMARK  104  A    between atoms: _247  and  _249
REMARK  105  A    between atoms: _249  and  _250
REMARK  106  A    between atoms: _249  and  _252
REMARK  107  A    between atoms: _252  and  _253
REMARK  108  A    between atoms: _253  and  _254
REMARK  109  A    between atoms: _254  and  _255
REMARK  110  A    between atoms: _264  and  _266
REMARK  111  A    between atoms: _266  and  _267
REMARK  112  A    between atoms: _266  and  _269
REMARK  113  A    between atoms: _269  and  _270
REMARK                            x       y       z     vdW  Elec       q    Type
REMARK                         _______ _______ _______ _____ _____    ______ ____
ROOT
ATOM      1  CA  GLU A   3      15.663  20.867  21.748  0.00  0.00    +0.149 C 
ENDROOT
BRANCH   1   3
ATOM      2  C   MET A   2      16.197  18.647  22.562  0.00  0.00    +0.241 C 
ATOM      3  N   GLU A   3      16.512  19.927  22.453  0.00  0.00    -0.297 N 
ATOM      4  H   GLU A   3      17.394  20.269  22.885  0.00  0.00    +0.150 HD
ATOM      5  O   MET A   2      15.198  18.145  22.037  0.00  0.00    -0.273 OA
BRANCH   2   6
ATOM      6  CA  MET A   2      17.175  17.819  23.365  0.00  0.00    +0.149 C 
BRANCH   6   9
ATOM      7  C   THR A   1      16.277  17.121  25.532  0.00  0.00    +0.241 C 
ATOM      8  O   THR A   1      16.805  18.058  26.119  0.00  0.00    -0.274 OA
ATOM      9  N   MET A   2      16.443  16.893  24.226  0.00  0.00    -0.297 N 
ATOM     10  H   MET A   2      16.039  16.030  23.810  0.00  0.00    +0.150 HD
BRANCH   7  11
ATOM     11  CA  THR A   1      15.386  16.143  26.302  0.00  0.00    +0.172 C 
BRANCH  11  12
ATOM     12  N   THR A   1      16.119  15.533  27.395  0.00  0.00    -0.236 NA
ATOM     13  H   THR A   1      16.476  16.140  28.161  0.00  0.00    +0.142 HD
ENDBRANCH  11  12
BRANCH  11  14
ATOM     14  CB  THR A   1      14.145  16.877  26.834  0.00  0.00    +0.135 C 
ATOM     15  CG2 THR A   1      13.365  17.479  25.701  0.00  0.00    +0.034 C 
BRANCH  14  16
ATOM     16  OG1 THR A   1      13.299  15.948  27.518  0.00  0.00    -0.383 OA
ATOM     17  HG1 THR A   1      13.018  15.235  26.891  0.00  0.00    +0.210 HD
ENDBRANCH  14  16
ENDBRANCH  11  14
ENDBRANCH   7  11
ENDBRANCH   6   9
BRANCH   6  18
ATOM     18  CB  MET A   2      18.115  17.095  22.401  0.00  0.00    +0.041 C 
BRANCH  18  19
ATOM     19  CG  MET A   2      19.203  16.291  23.080  0.00  0.00    +0.060 C 
BRANCH  19  20
ATOM     20  SD  MET A   2      20.144  15.351  21.873  0.00  0.00    -0.139 S 
ATOM     21  CE  MET A   2      21.397  14.598  22.907  0.00  0.00    +0.069 C 
ENDBRANCH  19  20
ENDBRANCH  18  19
ENDBRANCH   6  18
ENDBRANCH   2   6
ENDBRANCH   1   3
BRANCH   1  22
ATOM     22  C   GLU A   3      16.535  21.948  21.150  0.00  0.00    +0.241 C 
ATOM     23  O   GLU A   3      17.329  22.571  21.853  0.00  0.00    -0.273 OA
ATOM     24  N   ILE A   4      16.382  22.167  19.853  0.00  0.00    -0.297 N 
ATOM     25  H   ILE A   4      15.629  21.665  19.341  0.00  0.00    +0.150 HD
BRANCH  24  26
ATOM     26  CA  ILE A   4      17.240  23.093  19.122  0.00  0.00    +0.149 C 
BRANCH  26  27
ATOM     27  C   ILE A   4      16.872  24.565  19.390  0.00  0.00    +0.241 C 
ATOM     28  N   ASN A   5      15.590  24.824  19.632  0.00  0.00    -0.298 N 
ATOM     29  H   ASN A   5      14.928  24.027  19.726  0.00  0.00    +0.150 HD
ATOM     30  O   ILE A   4      17.738  25.442  19.394  0.00  0.00    -0.273 OA
BRANCH  28  31
ATOM     31  CA  ASN A   5      15.077  26.179  19.771  0.00  0.00    +0.146 C 
BRANCH  31  32
ATOM     32  C   ASN A   5      15.034  26.568  21.238  0.00  0.00    +0.227 C 
ATOM     33  O   ASN A   5      14.250  26.007  21.983  0.00  0.00    -0.286 OA
ENDBRANCH  31  32
BRANCH  31  34
ATOM     34  CB  ASN A   5      13.670  26.252  19.170  0.00  0.00    +0.112 C 
BRANCH  34  35
ATOM     35  CG  ASN A   5      13.077  27.650  19.205  0.00  0.00    +0.222 C 
ATOM     36  OD1 ASN A   5      13.599  28.557  19.846  0.00  0.00    -0.275 OA
ATOM     37  ND2 ASN A   5      11.968  27.823  18.510  0.00  0.00    -0.329 N 
ATOM     38 HD21 ASN A   5      11.505  28.754  18.493  0.00  0.00    +0.145 HD
ATOM     39 HD22 ASN A   5      11.557  27.028  17.980  0.00  0.00    +0.145 HD
ENDBRANCH  34  35
ENDBRANCH  31  34
ENDBRANCH  28  31
ENDBRANCH  26  27
BRANCH  26  40
ATOM     40  CB  ILE A   4      17.263  22.740  17.600  0.00  0.00    +0.027 C 
ATOM     41  CG2 ILE A   4      15.976  23.144  16.883  0.00  0.00    +0.002 C 
BRANCH  40  42
ATOM     42  CG1 ILE A   4      18.505  23.326  16.924  0.00  0.00    +0.002 C 
ATOM     43  CD1 ILE A   4      18.715  22.858  15.499  0.00  0.00    +0.000 C 
ENDBRANCH  40  42
ENDBRANCH  26  40
ENDBRANCH  24  26
ENDBRANCH   1  22
BRANCH   1  44
ATOM     44  CB  GLU A   3      14.660  21.461  22.722  0.00  0.00    +0.041 C 
BRANCH  44  45
ATOM     45  CG  GLU A   3      13.881  22.661  22.217  0.00  0.00    +0.116 C 
BRANCH  45  46
ATOM     46  CD  GLU A   3      13.106  22.408  20.943  0.00  0.00    +0.365 C 
ATOM     47  OE2 GLU A   3      12.237  21.504  20.929  0.00  0.00    -0.246 OA
ATOM     48  OE1 GLU A   3      13.348  23.151  19.963  0.00  0.00    -0.246 OA
ENDBRANCH  45  46
ENDBRANCH  44  45
ENDBRANCH   1  44
TORSDOF 22
REMARK  Name = ../refined-set-2016/4p58/4p58_pocket.pdb
REMARK  113 active torsions:
REMARK  status: ('A' for Active; 'I' for Inactive)
REMARK    1  A    between atoms: _1  and  _3
REMARK    2  A    between atoms: _3  and  _4
REMARK    3  A    between atoms: _3  and  _6
REMARK    4  A    between atoms: _6  and  _7
REMARK    5  A    between atoms: _7  and  _8
REMARK    6  A    between atoms: _11  and  _13
REMARK    7  A    between atoms: _13  and  _14
REMARK    8  A    between atoms: _13  and  _16
REMARK    9  A    between atoms: _16  and  _17
REMARK   10  A    between atoms: _20  and  _22
REMARK   11  A    between atoms: _22  and  _23
REMARK   12  A    between atoms: _25  and  _27
REMARK   13  A    between atoms: _27  and  _28
REMARK   14  A    between atoms: _31  and  _33
REMARK   15  A    between atoms: _33  and  _34
REMARK   16  A    between atoms: _33  and  _36
REMARK   17  A    between atoms: _36  and  _37
REMARK   18  A    between atoms: _42  and  _43
REMARK   19  A    between atoms: _45  and  _47
REMARK   20  A    between atoms: _47  and  _48
REMARK   21  A    between atoms: _47  and  _50
REMARK   22  A    between atoms: _50  and  _51
REMARK   23  A    between atoms: _54  and  _56
REMARK   24  A    between atoms: _56  and  _57
REMARK   25  A    between atoms: _56  and  _59
REMARK   26  A    between atoms: _59  and  _60
REMARK   27  A    between atoms: _60  and  _61
REMARK   28  A    between atoms: _63  and  _65
REMARK   29  A    between atoms: _65  and  _66
REMARK   30  A    between atoms: _65  and  _68
REMARK   31  A    between atoms: _68  and  _69
REMARK   32  A    between atoms: _69  and  _70
REMARK   33  A    between atoms: _73  and  _75
REMARK   34  A    between atoms: _75  and  _76
REMARK   35  A    between atoms: _75  and  _78
REMARK   36  A    between atoms: _78  and  _79
REMARK   37  A    between atoms: _82  and  _84
REMARK   38  A    between atoms: _84  and  _85
REMARK   39  A    between atoms: _84  and  _87
REMARK   40  A    between atoms: _87  and  _88
REMARK   41  A    between atoms: _93  and  _95
REMARK   42  A    between atoms: _95  and  _96
REMARK   43  A    between atoms: _95  and  _98
REMARK   44  A    between atoms: _98  and  _99
REMARK   45  A    between atoms: _104  and  _105
REMARK   46  A    between atoms: _107  and  _109
REMARK   47  A    between atoms: _109  and  _110
REMARK   48  A    between atoms: _113  and  _115
REMARK   49  A    between atoms: _115  and  _116
REMARK   50  A    between atoms: _115  and  _118
REMARK   51  A    between atoms: _118  and  _119
REMARK   52  A    between atoms: _122  and  _124
REMARK   53  A    between atoms: _124  and  _125
REMARK   54  A    between atoms: _124  and  _127
REMARK   55  A    between atoms: _127  and  _128
REMARK   56  A    between atoms: _131  and  _133
REMARK   57  A    between atoms: _133  and  _134
REMARK   58  A    between atoms: _136  and  _138
REMARK   59  A    between atoms: _138  and  _139
REMARK   60  A    between atoms: _142  and  _144
REMARK   61  A    between atoms: _144  and  _145
REMARK   62  A    between atoms: _144  and  _147
REMARK   63  A    between atoms: _147  and  _148
REMARK   64  A    between atoms: _150  and  _152
REMARK   65  A    between atoms: _152  and  _153
REMARK   66  A    between atoms: _152  and  _155
REMARK   67  A    between atoms: _155  and  _156
REMARK   68  A    between atoms: _156  and  _157
REMARK   69  A    between atoms: _162  and  _164
REMARK   70  A    between atoms: _164  and  _165
REMARK   71  A    between atoms: _164  and  _167
REMARK   72  A    between atoms: _167  and  _168
REMARK   73  A    between atoms: _171  and  _173
REMARK   74  A    between atoms: _173  and  _174
REMARK   75  A    between atoms: _173  and  _176
REMARK   76  A    between atoms: _176  and  _177
REMARK   77  A    between atoms: _180  and  _182
REMARK   78  A    between atoms: _182  and  _183
REMARK   79  A    between atoms: _182  and  _185
REMARK   80  A    between atoms: _185  and  _186
REMARK   81  A    between atoms: _189  and  _191
REMARK   82  A    between atoms: _191  and  _192
REMARK   83  A    between atoms: _191  and  _194
REMARK   84  A    between atoms: _194  and  _195
REMARK   85  A    between atoms: _198  and  _200
REMARK   86  A    between atoms: _200  and  _201
REMARK   87  A    between atoms: _200  and  _203
REMARK   88  A    between atoms: _203  and  _204
REMARK   89  A    between atoms: _209  and  _211
REMARK   90  A    between atoms: _211  and  _212
REMARK   91  A    between atoms: _211  and  _214
REMARK   92  A    between atoms: _214  and  _215
REMARK   93  A    between atoms: _225  and  _227
REMARK   94  A    between atoms: _227  and  _228
REMARK   95  A    between atoms: _227  and  _230
REMARK   96  A    between atoms: _230  and  _231
REMARK   97  A    between atoms: _231  and  _232
REMARK   98  A    between atoms: _232  and  _233
REMARK   99  A    between atoms: _233  and  _234
REMARK  100  A    between atoms: _238  and  _240
REMARK  101  A    between atoms: _240  and  _241
REMARK  102  A    between atoms: _240  and  _243
REMARK  103  A    between atoms: _243  and  _244
REMARK  104  A    between atoms: _247  and  _249
REMARK  105  A    between atoms: _249  and  _250
REMARK  106  A    between atoms: _249  and  _252
REMARK  107  A    between atoms: _252  and  _253
REMARK  108  A    between atoms: _253  and  _254
REMARK  109  A    between atoms: _254  and  _255
REMARK  110  A    between atoms: _264  and  _266
REMARK  111  A    between atoms: _266  and  _267
REMARK  112  A    between atoms: _266  and  _269
REMARK  113  A    between atoms: _269  and  _270
REMARK                            x       y       z     vdW  Elec       q    Type
REMARK                         _______ _______ _______ _____ _____    ______ ____
ROOT
ATOM      1  CA  TYR A   1      10.890  26.010  23.092  0.00  0.00    +0.149 C 
ENDROOT
BRANCH   1   2
ATOM      2  C   TYR A   1      11.423  25.316  24.343  0.00  0.00    +0.239 C 
ATOM      3  O   TYR A   1      10.660  24.740  25.117  0.00  0.00    -0.274 OA
ATOM      4  N   ALA A   2      12.734  25.357  24.533  0.00  0.00    -0.298 N 
ATOM      5  H   ALA A   2      13.337  25.828  23.829  0.00  0.00    +0.150 HD
BRANCH   4   6
ATOM      6  CA  ALA A   2      13.345  24.755  25.708  0.00  0.00    +0.137 C 
ATOM      7  CB  ALA A   2      14.864  24.820  25.602  0.00  0.00    +0.030 C 
BRANCH   6   8
ATOM      8  C   ALA A   2      12.859  25.451  26.981  0.00  0.00    +0.227 C 
ATOM      9  O   ALA A   2      12.630  24.807  28.008  0.00  0.00    -0.286 OA
ENDBRANCH   6   8
ENDBRANCH   4   6
ENDBRANCH   1   2
BRANCH   1  10
ATOM     10  N   TYR A   1      11.629  27.234  22.740  0.00  0.00    -0.238 NA
ATOM     11  H   TYR A   1      12.239  27.234  21.898  0.00  0.00    +0.142 HD
ENDBRANCH   1  10
BRANCH   1  12
ATOM     12  CB  TYR A   1      10.910  25.001  21.941  0.00  0.00    +0.053 C 
BRANCH  12  13
ATOM     13  CG  TYR A   1      10.106  25.366  20.703  0.00  0.00    -0.020 A 
ATOM     14  CD2 TYR A   1       9.245  26.458  20.679  0.00  0.00    -0.001 A 
ATOM     15  CE2 TYR A   1       8.513  26.771  19.542  0.00  0.00    +0.036 A 
ATOM     16  CZ  TYR A   1       8.624  25.976  18.415  0.00  0.00    +0.134 A 
ATOM     17  CE1 TYR A   1       9.463  24.883  18.419  0.00  0.00    +0.036 A 
ATOM     18  CD1 TYR A   1      10.197  24.587  19.558  0.00  0.00    -0.001 A 
BRANCH  16  19
ATOM     19  OH  TYR A   1       7.894  26.279  17.286  0.00  0.00    -0.506 OA
ATOM     20  HH  TYR A   1       7.349  27.088  17.454  0.00  0.00    +0.292 HD
ENDBRANCH  16  19
ENDBRANCH  12  13
ENDBRANCH   1  12
TORSDOF 7
REMARK  Name = ../refined-set-2016/4p58/4p58_pocket.pdb
REMARK  113 active torsions:
REMARK  status: ('A' for Active; 'I' for Inactive)
REMARK    1  A    between atoms: _1  and  _3
REMARK    2  A    between atoms: _3  and  _4
REMARK    3  A    between atoms: _3  and  _6
REMARK    4  A    between atoms: _6  and  _7
REMARK    5  A    between atoms: _7  and  _8
REMARK    6  A    between atoms: _11  and  _13
REMARK    7  A    between atoms: _13  and  _14
REMARK    8  A    between atoms: _13  and  _16
REMARK    9  A    between atoms: _16  and  _17
REMARK   10  A    between atoms: _20  and  _22
REMARK   11  A    between atoms: _22  and  _23
REMARK   12  A    between atoms: _25  and  _27
REMARK   13  A    between atoms: _27  and  _28
REMARK   14  A    between atoms: _31  and  _33
REMARK   15  A    between atoms: _33  and  _34
REMARK   16  A    between atoms: _33  and  _36
REMARK   17  A    between atoms: _36  and  _37
REMARK   18  A    between atoms: _42  and  _43
REMARK   19  A    between atoms: _45  and  _47
REMARK   20  A    between atoms: _47  and  _48
REMARK   21  A    between atoms: _47  and  _50
REMARK   22  A    between atoms: _50  and  _51
REMARK   23  A    between atoms: _54  and  _56
REMARK   24  A    between atoms: _56  and  _57
REMARK   25  A    between atoms: _56  and  _59
REMARK   26  A    between atoms: _59  and  _60
REMARK   27  A    between atoms: _60  and  _61
REMARK   28  A    between atoms: _63  and  _65
REMARK   29  A    between atoms: _65  and  _66
REMARK   30  A    between atoms: _65  and  _68
REMARK   31  A    between atoms: _68  and  _69
REMARK   32  A    between atoms: _69  and  _70
REMARK   33  A    between atoms: _73  and  _75
REMARK   34  A    between atoms: _75  and  _76
REMARK   35  A    between atoms: _75  and  _78
REMARK   36  A    between atoms: _78  and  _79
REMARK   37  A    between atoms: _82  and  _84
REMARK   38  A    between atoms: _84  and  _85
REMARK   39  A    between atoms: _84  and  _87
REMARK   40  A    between atoms: _87  and  _88
REMARK   41  A    between atoms: _93  and  _95
REMARK   42  A    between atoms: _95  and  _96
REMARK   43  A    between atoms: _95  and  _98
REMARK   44  A    between atoms: _98  and  _99
REMARK   45  A    between atoms: _104  and  _105
REMARK   46  A    between atoms: _107  and  _109
REMARK   47  A    between atoms: _109  and  _110
REMARK   48  A    between atoms: _113  and  _115
REMARK   49  A    between atoms: _115  and  _116
REMARK   50  A    between atoms: _115  and  _118
REMARK   51  A    between atoms: _118  and  _119
REMARK   52  A    between atoms: _122  and  _124
REMARK   53  A    between atoms: _124  and  _125
REMARK   54  A    between atoms: _124  and  _127
REMARK   55  A    between atoms: _127  and  _128
REMARK   56  A    between atoms: _131  and  _133
REMARK   57  A    between atoms: _133  and  _134
REMARK   58  A    between atoms: _136  and  _138
REMARK   59  A    between atoms: _138  and  _139
REMARK   60  A    between atoms: _142  and  _144
REMARK   61  A    between atoms: _144  and  _145
REMARK   62  A    between atoms: _144  and  _147
REMARK   63  A    between atoms: _147  and  _148
REMARK   64  A    between atoms: _150  and  _152
REMARK   65  A    between atoms: _152  and  _153
REMARK   66  A    between atoms: _152  and  _155
REMARK   67  A    between atoms: _155  and  _156
REMARK   68  A    between atoms: _156  and  _157
REMARK   69  A    between atoms: _162  and  _164
REMARK   70  A    between atoms: _164  and  _165
REMARK   71  A    between atoms: _164  and  _167
REMARK   72  A    between atoms: _167  and  _168
REMARK   73  A    between atoms: _171  and  _173
REMARK   74  A    between atoms: _173  and  _174
REMARK   75  A    between atoms: _173  and  _176
REMARK   76  A    between atoms: _176  and  _177
REMARK   77  A    between atoms: _180  and  _182
REMARK   78  A    between atoms: _182  and  _183
REMARK   79  A    between atoms: _182  and  _185
REMARK   80  A    between atoms: _185  and  _186
REMARK   81  A    between atoms: _189  and  _191
REMARK   82  A    between atoms: _191  and  _192
REMARK   83  A    between atoms: _191  and  _194
REMARK   84  A    between atoms: _194  and  _195
REMARK   85  A    between atoms: _198  and  _200
REMARK   86  A    between atoms: _200  and  _201
REMARK   87  A    between atoms: _200  and  _203
REMARK   88  A    between atoms: _203  and  _204
REMARK   89  A    between atoms: _209  and  _211
REMARK   90  A    between atoms: _211  and  _212
REMARK   91  A    between atoms: _211  and  _214
REMARK   92  A    between atoms: _214  and  _215
REMARK   93  A    between atoms: _225  and  _227
REMARK   94  A    between atoms: _227  and  _228
REMARK   95  A    between atoms: _227  and  _230
REMARK   96  A    between atoms: _230  and  _231
REMARK   97  A    between atoms: _231  and  _232
REMARK   98  A    between atoms: _232  and  _233
REMARK   99  A    between atoms: _233  and  _234
REMARK  100  A    between atoms: _238  and  _240
REMARK  101  A    between atoms: _240  and  _241
REMARK  102  A    between atoms: _240  and  _243
REMARK  103  A    between atoms: _243  and  _244
REMARK  104  A    between atoms: _247  and  _249
REMARK  105  A    between atoms: _249  and  _250
REMARK  106  A    between atoms: _249  and  _252
REMARK  107  A    between atoms: _252  and  _253
REMARK  108  A    between atoms: _253  and  _254
REMARK  109  A    between atoms: _254  and  _255
REMARK  110  A    between atoms: _264  and  _266
REMARK  111  A    between atoms: _266  and  _267
REMARK  112  A    between atoms: _266  and  _269
REMARK  113  A    between atoms: _269  and  _270
REMARK                            x       y       z     vdW  Elec       q    Type
REMARK                         _______ _______ _______ _____ _____    ______ ____
ROOT
ATOM      1  C   SER A   5      22.270  15.915  17.452  0.00  0.00    +0.243 C 
ATOM      2  O   SER A   5      23.003  15.242  18.174  0.00  0.00    -0.273 OA
ATOM      3  N   GLN A   6      22.621  16.246  16.212  0.00  0.00    -0.297 N 
ATOM      4  H   GLN A   6      22.014  16.870  15.642  0.00  0.00    +0.150 HD
ENDROOT
BRANCH   3   5
ATOM      5  CA  GLN A   6      23.868  15.723  15.660  0.00  0.00    +0.149 C 
BRANCH   5   6
ATOM      6  C   GLN A   6      25.102  16.240  16.385  0.00  0.00    +0.241 C 
ATOM      7  N   ASP A   7      24.992  17.388  17.032  0.00  0.00    -0.297 N 
ATOM      8  H   ASP A   7      24.105  17.927  16.968  0.00  0.00    +0.150 HD
ATOM      9  O   GLN A   6      26.139  15.605  16.351  0.00  0.00    -0.273 OA
BRANCH   7  10
ATOM     10  CA  ASP A   7      26.089  17.910  17.832  0.00  0.00    +0.160 C 
BRANCH  10  11
ATOM     11  C   ASP A   7      26.109  17.319  19.225  0.00  0.00    +0.241 C 
ATOM     12  N   LEU A   8      24.936  17.150  19.820  0.00  0.00    -0.297 N 
ATOM     13  H   LEU A   8      24.064  17.327  19.282  0.00  0.00    +0.150 HD
ATOM     14  O   ASP A   7      27.175  17.033  19.759  0.00  0.00    -0.273 OA
BRANCH  12  15
ATOM     15  CA  LEU A   8      24.840  16.717  21.226  0.00  0.00    +0.149 C 
BRANCH  15  16
ATOM     16  C   LEU A   8      24.969  15.217  21.438  0.00  0.00    +0.241 C 
ATOM     17  O   LEU A   8      25.545  14.793  22.423  0.00  0.00    -0.273 OA
ATOM     18  N   ILE A   9      24.433  14.415  20.530  0.00  0.00    -0.298 N 
ATOM     19  H   ILE A   9      23.969  14.821  19.693  0.00  0.00    +0.150 HD
BRANCH  18  20
ATOM     20  CA  ILE A   9      24.489  12.966  20.695  0.00  0.00    +0.137 C 
BRANCH  20  21
ATOM     21  CB  ILE A   9      23.773  12.229  19.542  0.00  0.00    +0.026 C 
ATOM     22  CG2 ILE A   9      24.173  10.757  19.492  0.00  0.00    +0.002 C 
BRANCH  21  23
ATOM     23  CG1 ILE A   9      22.263  12.361  19.719  0.00  0.00    +0.002 C 
ATOM     24  CD1 ILE A   9      21.453  11.915  18.519  0.00  0.00    +0.000 C 
ENDBRANCH  21  23
ENDBRANCH  20  21
BRANCH  20  25
ATOM     25  C   ILE A   9      25.923  12.439  20.859  0.00  0.00    +0.227 C 
ATOM     26  O   ILE A   9      26.178  11.629  21.743  0.00  0.00    -0.286 OA
ENDBRANCH  20  25
ENDBRANCH  18  20
ENDBRANCH  15  16
BRANCH  15  27
ATOM     27  CB  LEU A   8      23.527  17.183  21.848  0.00  0.00    +0.029 C 
BRANCH  27  28
ATOM     28  CG  LEU A   8      23.325  18.688  21.989  0.00  0.00    +0.002 C 
ATOM     29  CD2 LEU A   8      24.202  19.220  23.108  0.00  0.00    +0.000 C 
ATOM     30  CD1 LEU A   8      21.856  18.994  22.253  0.00  0.00    +0.000 C 
ENDBRANCH  27  28
ENDBRANCH  15  27
ENDBRANCH  12  15
ENDBRANCH  10  11
BRANCH  10  31
ATOM     31  CB  ASP A   7      25.982  19.419  17.960  0.00  0.00    +0.143 C 
BRANCH  31  32
ATOM     32  CG  ASP A   7      26.126  20.124  16.636  0.00  0.00    +0.367 C 
ATOM     33  OD2 ASP A   7      25.527  21.212  16.491  0.00  0.00    -0.246 OA
ATOM     34  OD1 ASP A   7      26.838  19.598  15.742  0.00  0.00    -0.246 OA
ENDBRANCH  31  32
ENDBRANCH  10  31
ENDBRANCH   7  10
ENDBRANCH   5   6
BRANCH   5  35
ATOM     35  CB  GLN A   6      23.989  15.973  14.158  0.00  0.00    +0.039 C 
BRANCH  35  36
ATOM     36  CG  GLN A   6      24.203  17.417  13.747  0.00  0.00    +0.087 C 
BRANCH  36  37
ATOM     37  CD  GLN A   6      22.917  18.202  13.581  0.00  0.00    +0.219 C 
ATOM     38  OE1 GLN A   6      21.846  17.791  14.012  0.00  0.00    -0.275 OA
ATOM     39  NE2 GLN A   6      23.028  19.354  12.954  0.00  0.00    -0.329 N 
ATOM     40 HE21 GLN A   6      22.188  19.950  12.810  0.00  0.00    +0.145 HD
ATOM     41 HE22 GLN A   6      23.955  19.668  12.603  0.00  0.00    +0.145 HD
ENDBRANCH  36  37
ENDBRANCH  35  36
ENDBRANCH   5  35
ENDBRANCH   3   5
BRANCH   1  42
ATOM     42  CA  SER A   5      20.918  16.418  17.975  0.00  0.00    +0.178 C 
BRANCH  42  45
ATOM     43  C   ALA A   4      21.552  18.768  17.951  0.00  0.00    +0.241 C 
ATOM     44  O   ALA A   4      22.641  18.534  18.479  0.00  0.00    -0.273 OA
ATOM     45  N   SER A   5      20.672  17.819  17.658  0.00  0.00    -0.295 N 
ATOM     46  H   SER A   5      19.782  18.082  17.189  0.00  0.00    +0.150 HD
BRANCH  43  47
ATOM     47  CA  ALA A   4      21.158  20.190  17.573  0.00  0.00    +0.149 C 
ATOM     48  CB  ALA A   4      21.859  20.601  16.297  0.00  0.00    +0.031 C 
BRANCH  47  51
ATOM     49  C   GLY A   3      20.716  21.343  19.685  0.00  0.00    +0.243 C 
ATOM     50  O   GLY A   3      19.655  20.770  19.859  0.00  0.00    -0.273 OA
ATOM     51  N   ALA A   4      21.502  21.126  18.640  0.00  0.00    -0.297 N 
ATOM     52  H   ALA A   4      22.402  21.644  18.577  0.00  0.00    +0.150 HD
BRANCH  49  53
ATOM     53  CA  GLY A   3      21.221  22.349  20.684  0.00  0.00    +0.176 C 
BRANCH  53  56
ATOM     54  C   ILE A   2      20.772  22.829  23.020  0.00  0.00    +0.241 C 
ATOM     55  O   ILE A   2      21.942  23.054  23.260  0.00  0.00    -0.273 OA
ATOM     56  N   GLY A   3      20.331  22.460  21.821  0.00  0.00    -0.295 N 
ATOM     57  H   GLY A   3      19.321  22.246  21.697  0.00  0.00    +0.150 HD
BRANCH  54  58
ATOM     58  CA  ILE A   2      19.735  22.962  24.108  0.00  0.00    +0.148 C 
BRANCH  58  60
ATOM     59  C   LEU A   1      19.458  20.904  25.363  0.00  0.00    +0.238 C 
ATOM     60  N   ILE A   2      20.076  22.067  25.199  0.00  0.00    -0.297 N 
ATOM     61  H   ILE A   2      20.822  22.344  25.868  0.00  0.00    +0.150 HD
ATOM     62  O   LEU A   1      18.604  20.485  24.581  0.00  0.00    -0.274 OA
BRANCH  59  63
ATOM     63  CA  LEU A   1      19.846  20.096  26.591  0.00  0.00    +0.145 C 
BRANCH  63  64
ATOM     64  N   LEU A   1      18.642  19.691  27.284  0.00  0.00    -0.238 NA
ATOM     65  H   LEU A   1      18.034  18.972  26.843  0.00  0.00    +0.142 HD
ENDBRANCH  63  64
BRANCH  63  66
ATOM     66  CB  LEU A   1      20.629  18.859  26.176  0.00  0.00    +0.026 C 
BRANCH  66  67
ATOM     67  CG  LEU A   1      20.963  17.875  27.302  0.00  0.00    +0.002 C 
ATOM     68  CD2 LEU A   1      21.726  18.562  28.420  0.00  0.00    +0.000 C 
ATOM     69  CD1 LEU A   1      21.792  16.738  26.741  0.00  0.00    +0.000 C 
ENDBRANCH  66  67
ENDBRANCH  63  66
ENDBRANCH  59  63
ENDBRANCH  58  60
BRANCH  58  70
ATOM     70  CB  ILE A   2      19.651  24.424  24.565  0.00  0.00    +0.027 C 
ATOM     71  CG2 ILE A   2      19.334  25.329  23.374  0.00  0.00    +0.002 C 
BRANCH  70  72
ATOM     72  CG1 ILE A   2      18.560  24.565  25.628  0.00  0.00    +0.002 C 
ATOM     73  CD1 ILE A   2      18.400  25.973  26.179  0.00  0.00    +0.000 C 
ENDBRANCH  70  72
ENDBRANCH  58  70
ENDBRANCH  54  58
ENDBRANCH  53  56
ENDBRANCH  49  53
ENDBRANCH  47  51
ENDBRANCH  43  47
ENDBRANCH  42  45
BRANCH  42  74
ATOM     74  CB  SER A   5      19.774  15.540  17.453  0.00  0.00    +0.166 C 
BRANCH  74  75
ATOM     75  OG  SER A   5      19.584  15.698  16.057  0.00  0.00    -0.380 OA
ATOM     76  H   SER A   5      18.840  15.117  15.759  0.00  0.00    +0.211 HD
ENDBRANCH  74  75
ENDBRANCH  42  74
ENDBRANCH   1  42
TORSDOF 33
REMARK  Name = ../refined-set-2016/4p58/4p58_pocket.pdb
REMARK  113 active torsions:
REMARK  status: ('A' for Active; 'I' for Inactive)
REMARK    1  A    between atoms: _1  and  _3
REMARK    2  A    between atoms: _3  and  _4
REMARK    3  A    between atoms: _3  and  _6
REMARK    4  A    between atoms: _6  and  _7
REMARK    5  A    between atoms: _7  and  _8
REMARK    6  A    between atoms: _11  and  _13
REMARK    7  A    between atoms: _13  and  _14
REMARK    8  A    between atoms: _13  and  _16
REMARK    9  A    between atoms: _16  and  _17
REMARK   10  A    between atoms: _20  and  _22
REMARK   11  A    between atoms: _22  and  _23
REMARK   12  A    between atoms: _25  and  _27
REMARK   13  A    between atoms: _27  and  _28
REMARK   14  A    between atoms: _31  and  _33
REMARK   15  A    between atoms: _33  and  _34
REMARK   16  A    between atoms: _33  and  _36
REMARK   17  A    between atoms: _36  and  _37
REMARK   18  A    between atoms: _42  and  _43
REMARK   19  A    between atoms: _45  and  _47
REMARK   20  A    between atoms: _47  and  _48
REMARK   21  A    between atoms: _47  and  _50
REMARK   22  A    between atoms: _50  and  _51
REMARK   23  A    between atoms: _54  and  _56
REMARK   24  A    between atoms: _56  and  _57
REMARK   25  A    between atoms: _56  and  _59
REMARK   26  A    between atoms: _59  and  _60
REMARK   27  A    between atoms: _60  and  _61
REMARK   28  A    between atoms: _63  and  _65
REMARK   29  A    between atoms: _65  and  _66
REMARK   30  A    between atoms: _65  and  _68
REMARK   31  A    between atoms: _68  and  _69
REMARK   32  A    between atoms: _69  and  _70
REMARK   33  A    between atoms: _73  and  _75
REMARK   34  A    between atoms: _75  and  _76
REMARK   35  A    between atoms: _75  and  _78
REMARK   36  A    between atoms: _78  and  _79
REMARK   37  A    between atoms: _82  and  _84
REMARK   38  A    between atoms: _84  and  _85
REMARK   39  A    between atoms: _84  and  _87
REMARK   40  A    between atoms: _87  and  _88
REMARK   41  A    between atoms: _93  and  _95
REMARK   42  A    between atoms: _95  and  _96
REMARK   43  A    between atoms: _95  and  _98
REMARK   44  A    between atoms: _98  and  _99
REMARK   45  A    between atoms: _104  and  _105
REMARK   46  A    between atoms: _107  and  _109
REMARK   47  A    between atoms: _109  and  _110
REMARK   48  A    between atoms: _113  and  _115
REMARK   49  A    between atoms: _115  and  _116
REMARK   50  A    between atoms: _115  and  _118
REMARK   51  A    between atoms: _118  and  _119
REMARK   52  A    between atoms: _122  and  _124
REMARK   53  A    between atoms: _124  and  _125
REMARK   54  A    between atoms: _124  and  _127
REMARK   55  A    between atoms: _127  and  _128
REMARK   56  A    between atoms: _131  and  _133
REMARK   57  A    between atoms: _133  and  _134
REMARK   58  A    between atoms: _136  and  _138
REMARK   59  A    between atoms: _138  and  _139
REMARK   60  A    between atoms: _142  and  _144
REMARK   61  A    between atoms: _144  and  _145
REMARK   62  A    between atoms: _144  and  _147
REMARK   63  A    between atoms: _147  and  _148
REMARK   64  A    between atoms: _150  and  _152
REMARK   65  A    between atoms: _152  and  _153
REMARK   66  A    between atoms: _152  and  _155
REMARK   67  A    between atoms: _155  and  _156
REMARK   68  A    between atoms: _156  and  _157
REMARK   69  A    between atoms: _162  and  _164
REMARK   70  A    between atoms: _164  and  _165
REMARK   71  A    between atoms: _164  and  _167
REMARK   72  A    between atoms: _167  and  _168
REMARK   73  A    between atoms: _171  and  _173
REMARK   74  A    between atoms: _173  and  _174
REMARK   75  A    between atoms: _173  and  _176
REMARK   76  A    between atoms: _176  and  _177
REMARK   77  A    between atoms: _180  and  _182
REMARK   78  A    between atoms: _182  and  _183
REMARK   79  A    between atoms: _182  and  _185
REMARK   80  A    between atoms: _185  and  _186
REMARK   81  A    between atoms: _189  and  _191
REMARK   82  A    between atoms: _191  and  _192
REMARK   83  A    between atoms: _191  and  _194
REMARK   84  A    between atoms: _194  and  _195
REMARK   85  A    between atoms: _198  and  _200
REMARK   86  A    between atoms: _200  and  _201
REMARK   87  A    between atoms: _200  and  _203
REMARK   88  A    between atoms: _203  and  _204
REMARK   89  A    between atoms: _209  and  _211
REMARK   90  A    between atoms: _211  and  _212
REMARK   91  A    between atoms: _211  and  _214
REMARK   92  A    between atoms: _214  and  _215
REMARK   93  A    between atoms: _225  and  _227
REMARK   94  A    between atoms: _227  and  _228
REMARK   95  A    between atoms: _227  and  _230
REMARK   96  A    between atoms: _230  and  _231
REMARK   97  A    between atoms: _231  and  _232
REMARK   98  A    between atoms: _232  and  _233
REMARK   99  A    between atoms: _233  and  _234
REMARK  100  A    between atoms: _238  and  _240
REMARK  101  A    between atoms: _240  and  _241
REMARK  102  A    between atoms: _240  and  _243
REMARK  103  A    between atoms: _243  and  _244
REMARK  104  A    between atoms: _247  and  _249
REMARK  105  A    between atoms: _249  and  _250
REMARK  106  A    between atoms: _249  and  _252
REMARK  107  A    between atoms: _252  and  _253
REMARK  108  A    between atoms: _253  and  _254
REMARK  109  A    between atoms: _254  and  _255
REMARK  110  A    between atoms: _264  and  _266
REMARK  111  A    between atoms: _266  and  _267
REMARK  112  A    between atoms: _266  and  _269
REMARK  113  A    between atoms: _269  and  _270
REMARK                            x       y       z     vdW  Elec       q    Type
REMARK                         _______ _______ _______ _____ _____    ______ ____
ROOT
ATOM      1  C   TRP A   3      13.455  15.328  11.621  0.00  0.00    +0.241 C 
ATOM      2  O   TRP A   3      14.192  14.432  11.989  0.00  0.00    -0.273 OA
ATOM      3  N   LYS A   4      12.650  15.210  10.612  0.00  0.00    -0.297 N 
ATOM      4  H   LYS A   4      12.166  16.059  10.255  0.00  0.00    +0.150 HD
ENDROOT
BRANCH   3   5
ATOM      5  CA  LYS A   4      12.405  13.969   9.978  0.00  0.00    +0.149 C 
BRANCH   5   6
ATOM      6  C   LYS A   4      13.594  13.560   9.105  0.00  0.00    +0.241 C 
ATOM      7  O   LYS A   4      13.928  12.386   9.032  0.00  0.00    -0.273 OA
ATOM      8  N   ASP A   5      14.271  14.532   8.499  0.00  0.00    -0.297 N 
ATOM      9  H   ASP A   5      13.919  15.510   8.533  0.00  0.00    +0.150 HD
BRANCH   8  10
ATOM     10  CA  ASP A   5      15.517  14.225   7.781  0.00  0.00    +0.160 C 
BRANCH  10  11
ATOM     11  C   ASP A   5      16.666  13.755   8.712  0.00  0.00    +0.241 C 
ATOM     12  N   ARG A   6      16.508  13.907  10.037  0.00  0.00    -0.298 N 
ATOM     13  H   ARG A   6      15.661  14.400  10.385  0.00  0.00    +0.150 HD
ATOM     14  O   ASP A   5      17.658  13.228   8.213  0.00  0.00    -0.273 OA
BRANCH  12  15
ATOM     15  CA  ARG A   6      17.479  13.408  11.011  0.00  0.00    +0.137 C 
BRANCH  15  16
ATOM     16  C   ARG A   6      17.144  12.055  11.622  0.00  0.00    +0.227 C 
ATOM     17  O   ARG A   6      17.952  11.518  12.358  0.00  0.00    -0.286 OA
ENDBRANCH  15  16
BRANCH  15  18
ATOM     18  CB  ARG A   6      17.656  14.385  12.176  0.00  0.00    +0.031 C 
BRANCH  18  19
ATOM     19  CG  ARG A   6      18.262  15.740  11.842  0.00  0.00    +0.045 C 
BRANCH  19  20
ATOM     20  CD  ARG A   6      19.677  15.670  11.311  0.00  0.00    +0.174 C 
BRANCH  20  21
ATOM     21  NE  ARG A   6      20.545  14.810  12.108  0.00  0.00    -0.265 N 
ATOM     22  HE  ARG A   6      20.206  14.504  13.042  0.00  0.00    +0.259 HD
ATOM     23  CZ  ARG A   6      21.751  14.392  11.709  0.00  0.00    +0.342 C 
ATOM     24  NH2 ARG A   6      22.471  13.581  12.486  0.00  0.00    -0.292 N 
ATOM     25 HH21 ARG A   6      22.095  13.272  13.405  0.00  0.00    +0.255 HD
ATOM     26 HH22 ARG A   6      23.409  13.258  12.173  0.00  0.00    +0.255 HD
ATOM     27  NH1 ARG A   6      22.249  14.770  10.529  0.00  0.00    -0.292 N 
ATOM     28 HH11 ARG A   6      23.188  14.438  10.230  0.00  0.00    +0.255 HD
ATOM     29 HH12 ARG A   6      21.698  15.397   9.909  0.00  0.00    +0.255 HD
ENDBRANCH  20  21
ENDBRANCH  19  20
ENDBRANCH  18  19
ENDBRANCH  15  18
ENDBRANCH  12  15
ENDBRANCH  10  11
BRANCH  10  30
ATOM     30  CB  ASP A   5      15.938  15.360   6.805  0.00  0.00    +0.143 C 
BRANCH  30  31
ATOM     31  CG  ASP A   5      16.930  16.360   7.401  0.00  0.00    +0.367 C 
ATOM     32  OD2 ASP A   5      16.626  16.993   8.421  0.00  0.00    -0.246 OA
ATOM     33  OD1 ASP A   5      18.013  16.550   6.809  0.00  0.00    -0.246 OA
ENDBRANCH  30  31
ENDBRANCH  10  30
ENDBRANCH   8  10
ENDBRANCH   5   6
BRANCH   5  34
ATOM     34  CB  LYS A   4      11.145  14.206   9.206  0.00  0.00    +0.029 C 
BRANCH  34  35
ATOM     35  CG  LYS A   4      10.612  13.088   8.419  0.00  0.00    +0.000 C 
BRANCH  35  36
ATOM     36  CD  LYS A   4       9.128  13.361   8.246  0.00  0.00    -0.024 C 
BRANCH  36  37
ATOM     37  CE  LYS A   4       8.264  12.459   9.108  0.00  0.00    -0.086 C 
BRANCH  37  38
ATOM     38  NZ  LYS A   4       8.906  11.858  10.315  0.00  0.00    +0.380 N 
ATOM     39  HZ1 LYS A   4       9.235  12.617  10.945  0.00  0.00    -0.089 HD
ATOM     40  HZ2 LYS A   4       8.213  11.266  10.816  0.00  0.00    -0.089 HD
ATOM     41  HZ3 LYS A   4       9.715  11.274  10.021  0.00  0.00    -0.089 HD
ENDBRANCH  37  38
ENDBRANCH  36  37
ENDBRANCH  35  36
ENDBRANCH  34  35
ENDBRANCH   5  34
ENDBRANCH   3   5
BRANCH   1  42
ATOM     42  CA  TRP A   3      13.432  16.696  12.201  0.00  0.00    +0.153 C 
BRANCH  42  45
ATOM     43  C   HIS A   2      12.396  16.465  14.356  0.00  0.00    +0.241 C 
ATOM     44  O   HIS A   2      11.287  16.400  13.827  0.00  0.00    -0.273 OA
ATOM     45  N   TRP A   3      13.504  16.662  13.649  0.00  0.00    -0.297 N 
ATOM     46  H   TRP A   3      14.417  16.791  14.131  0.00  0.00    +0.150 HD
BRANCH  43  47
ATOM     47  CA  HIS A   2      12.495  16.322  15.838  0.00  0.00    +0.155 C 
BRANCH  47  50
ATOM     48  C   ASP A   1      10.608  15.064  16.770  0.00  0.00    +0.239 C 
ATOM     49  O   ASP A   1       9.892  16.049  16.883  0.00  0.00    -0.274 OA
ATOM     50  N   HIS A   2      11.809  15.096  16.205  0.00  0.00    -0.297 N 
ATOM     51  H   HIS A   2      12.286  14.191  16.014  0.00  0.00    +0.150 HD
BRANCH  48  52
ATOM     52  CA  ASP A   1      10.122  13.694  17.235  0.00  0.00    +0.156 C 
BRANCH  52  53
ATOM     53  N   ASP A   1      11.214  12.817  17.646  0.00  0.00    -0.238 NA
ATOM     54  H   ASP A   1      12.064  13.232  18.078  0.00  0.00    +0.142 HD
ENDBRANCH  52  53
BRANCH  52  55
ATOM     55  CB  ASP A   1       9.143  13.859  18.393  0.00  0.00    +0.140 C 
BRANCH  55  56
ATOM     56  CG  ASP A   1       7.811  14.467  17.968  0.00  0.00    +0.367 C 
ATOM     57  OD2 ASP A   1       7.143  15.059  18.842  0.00  0.00    -0.246 OA
ATOM     58  OD1 ASP A   1       7.425  14.357  16.781  0.00  0.00    -0.246 OA
ENDBRANCH  55  56
ENDBRANCH  52  55
ENDBRANCH  48  52
ENDBRANCH  47  50
BRANCH  47  59
ATOM     59  CB  HIS A   2      13.936  16.362  16.379  0.00  0.00    +0.076 C 
BRANCH  59  60
ATOM     60  CG  HIS A   2      14.846  15.227  15.917  0.00  0.00    +0.082 A 
ATOM     61  ND1 HIS A   2      14.439  13.939  15.772  0.00  0.00    -0.227 NA
ATOM     62  CE1 HIS A   2      15.479  13.181  15.391  0.00  0.00    +0.199 A 
ATOM     63  NE2 HIS A   2      16.557  13.966  15.315  0.00  0.00    -0.221 NA
ATOM     64  CD2 HIS A   2      16.203  15.232  15.634  0.00  0.00    +0.115 A 
ENDBRANCH  59  60
ENDBRANCH  47  59
ENDBRANCH  43  47
ENDBRANCH  42  45
BRANCH  42  65
ATOM     65  CB  TRP A   3      14.521  17.531  11.551  0.00  0.00    +0.057 C 
BRANCH  65  66
ATOM     66  CG  TRP A   3      14.570  18.955  12.028  0.00  0.00    -0.002 A 
ATOM     67  CD1 TRP A   3      13.558  19.694  12.631  0.00  0.00    +0.068 A 
ATOM     68  NE1 TRP A   3      13.986  20.945  12.934  0.00  0.00    -0.352 N 
ATOM     69  HE1 TRP A   3      13.409  21.673  13.402  0.00  0.00    +0.166 HD
ATOM     70  CE2 TRP A   3      15.260  21.111  12.544  0.00  0.00    +0.056 A 
ATOM     71  CZ2 TRP A   3      16.100  22.198  12.651  0.00  0.00    +0.017 A 
ATOM     72  CH2 TRP A   3      17.393  22.051  12.152  0.00  0.00    +0.001 A 
ATOM     73  CZ3 TRP A   3      17.829  20.857  11.570  0.00  0.00    +0.000 A 
ATOM     74  CE3 TRP A   3      16.989  19.745  11.466  0.00  0.00    +0.001 A 
ATOM     75  CD2 TRP A   3      15.697  19.852  11.947  0.00  0.00    +0.013 A 
ENDBRANCH  65  66
ENDBRANCH  42  65
ENDBRANCH   1  42
TORSDOF 29
REMARK  Name = ../refined-set-2016/4p58/4p58_pocket.pdb
REMARK  113 active torsions:
REMARK  status: ('A' for Active; 'I' for Inactive)
REMARK    1  A    between atoms: _1  and  _3
REMARK    2  A    between atoms: _3  and  _4
REMARK    3  A    between atoms: _3  and  _6
REMARK    4  A    between atoms: _6  and  _7
REMARK    5  A    between atoms: _7  and  _8
REMARK    6  A    between atoms: _11  and  _13
REMARK    7  A    between atoms: _13  and  _14
REMARK    8  A    between atoms: _13  and  _16
REMARK    9  A    between atoms: _16  and  _17
REMARK   10  A    between atoms: _20  and  _22
REMARK   11  A    between atoms: _22  and  _23
REMARK   12  A    between atoms: _25  and  _27
REMARK   13  A    between atoms: _27  and  _28
REMARK   14  A    between atoms: _31  and  _33
REMARK   15  A    between atoms: _33  and  _34
REMARK   16  A    between atoms: _33  and  _36
REMARK   17  A    between atoms: _36  and  _37
REMARK   18  A    between atoms: _42  and  _43
REMARK   19  A    between atoms: _45  and  _47
REMARK   20  A    between atoms: _47  and  _48
REMARK   21  A    between atoms: _47  and  _50
REMARK   22  A    between atoms: _50  and  _51
REMARK   23  A    between atoms: _54  and  _56
REMARK   24  A    between atoms: _56  and  _57
REMARK   25  A    between atoms: _56  and  _59
REMARK   26  A    between atoms: _59  and  _60
REMARK   27  A    between atoms: _60  and  _61
REMARK   28  A    between atoms: _63  and  _65
REMARK   29  A    between atoms: _65  and  _66
REMARK   30  A    between atoms: _65  and  _68
REMARK   31  A    between atoms: _68  and  _69
REMARK   32  A    between atoms: _69  and  _70
REMARK   33  A    between atoms: _73  and  _75
REMARK   34  A    between atoms: _75  and  _76
REMARK   35  A    between atoms: _75  and  _78
REMARK   36  A    between atoms: _78  and  _79
REMARK   37  A    between atoms: _82  and  _84
REMARK   38  A    between atoms: _84  and  _85
REMARK   39  A    between atoms: _84  and  _87
REMARK   40  A    between atoms: _87  and  _88
REMARK   41  A    between atoms: _93  and  _95
REMARK   42  A    between atoms: _95  and  _96
REMARK   43  A    between atoms: _95  and  _98
REMARK   44  A    between atoms: _98  and  _99
REMARK   45  A    between atoms: _104  and  _105
REMARK   46  A    between atoms: _107  and  _109
REMARK   47  A    between atoms: _109  and  _110
REMARK   48  A    between atoms: _113  and  _115
REMARK   49  A    between atoms: _115  and  _116
REMARK   50  A    between atoms: _115  and  _118
REMARK   51  A    between atoms: _118  and  _119
REMARK   52  A    between atoms: _122  and  _124
REMARK   53  A    between atoms: _124  and  _125
REMARK   54  A    between atoms: _124  and  _127
REMARK   55  A    between atoms: _127  and  _128
REMARK   56  A    between atoms: _131  and  _133
REMARK   57  A    between atoms: _133  and  _134
REMARK   58  A    between atoms: _136  and  _138
REMARK   59  A    between atoms: _138  and  _139
REMARK   60  A    between atoms: _142  and  _144
REMARK   61  A    between atoms: _144  and  _145
REMARK   62  A    between atoms: _144  and  _147
REMARK   63  A    between atoms: _147  and  _148
REMARK   64  A    between atoms: _150  and  _152
REMARK   65  A    between atoms: _152  and  _153
REMARK   66  A    between atoms: _152  and  _155
REMARK   67  A    between atoms: _155  and  _156
REMARK   68  A    between atoms: _156  and  _157
REMARK   69  A    between atoms: _162  and  _164
REMARK   70  A    between atoms: _164  and  _165
REMARK   71  A    between atoms: _164  and  _167
REMARK   72  A    between atoms: _167  and  _168
REMARK   73  A    between atoms: _171  and  _173
REMARK   74  A    between atoms: _173  and  _174
REMARK   75  A    between atoms: _173  and  _176
REMARK   76  A    between atoms: _176  and  _177
REMARK   77  A    between atoms: _180  and  _182
REMARK   78  A    between atoms: _182  and  _183
REMARK   79  A    between atoms: _182  and  _185
REMARK   80  A    between atoms: _185  and  _186
REMARK   81  A    between atoms: _189  and  _191
REMARK   82  A    between atoms: _191  and  _192
REMARK   83  A    between atoms: _191  and  _194
REMARK   84  A    between atoms: _194  and  _195
REMARK   85  A    between atoms: _198  and  _200
REMARK   86  A    between atoms: _200  and  _201
REMARK   87  A    between atoms: _200  and  _203
REMARK   88  A    between atoms: _203  and  _204
REMARK   89  A    between atoms: _209  and  _211
REMARK   90  A    between atoms: _211  and  _212
REMARK   91  A    between atoms: _211  and  _214
REMARK   92  A    between atoms: _214  and  _215
REMARK   93  A    between atoms: _225  and  _227
REMARK   94  A    between atoms: _227  and  _228
REMARK   95  A    between atoms: _227  and  _230
REMARK   96  A    between atoms: _230  and  _231
REMARK   97  A    between atoms: _231  and  _232
REMARK   98  A    between atoms: _232  and  _233
REMARK   99  A    between atoms: _233  and  _234
REMARK  100  A    between atoms: _238  and  _240
REMARK  101  A    between atoms: _240  and  _241
REMARK  102  A    between atoms: _240  and  _243
REMARK  103  A    between atoms: _243  and  _244
REMARK  104  A    between atoms: _247  and  _249
REMARK  105  A    between atoms: _249  and  _250
REMARK  106  A    between atoms: _249  and  _252
REMARK  107  A    between atoms: _252  and  _253
REMARK  108  A    between atoms: _253  and  _254
REMARK  109  A    between atoms: _254  and  _255
REMARK  110  A    between atoms: _264  and  _266
REMARK  111  A    between atoms: _266  and  _267
REMARK  112  A    between atoms: _266  and  _269
REMARK  113  A    between atoms: _269  and  _270
REMARK                            x       y       z     vdW  Elec       q    Type
REMARK                         _______ _______ _______ _____ _____    ______ ____
ROOT
ATOM      1  CA  ASP A   1      20.544  10.154  14.367  0.00  0.00    +0.144 C 
ENDROOT
BRANCH   1   2
ATOM      2  N   ASP A   1      20.422  10.172  12.917  0.00  0.00    -0.239 NA
ATOM      3  H   ASP A   1      19.562  10.562  12.482  0.00  0.00    +0.142 HD
ENDBRANCH   1   2
BRANCH   1   4
ATOM      4  C   ASP A   1      20.407   8.747  14.937  0.00  0.00    +0.225 C 
ATOM      5  O   ASP A   1      21.013   8.424  15.945  0.00  0.00    -0.287 OA
ENDBRANCH   1   4
BRANCH   1   6
ATOM      6  CB  ASP A   1      19.529  11.099  15.020  0.00  0.00    +0.139 C 
BRANCH   6   7
ATOM      7  CG  ASP A   1      19.923  12.577  14.889  0.00  0.00    +0.367 C 
ATOM      8  OD2 ASP A   1      19.075  13.444  15.164  0.00  0.00    -0.246 OA
ATOM      9  OD1 ASP A   1      21.074  12.893  14.528  0.00  0.00    -0.246 OA
ENDBRANCH   6   7
ENDBRANCH   1   6
TORSDOF 4
REMARK  Name = ../refined-set-2016/4p58/4p58_pocket.pdb
REMARK  113 active torsions:
REMARK  status: ('A' for Active; 'I' for Inactive)
REMARK    1  A    between atoms: _1  and  _3
REMARK    2  A    between atoms: _3  and  _4
REMARK    3  A    between atoms: _3  and  _6
REMARK    4  A    between atoms: _6  and  _7
REMARK    5  A    between atoms: _7  and  _8
REMARK    6  A    between atoms: _11  and  _13
REMARK    7  A    between atoms: _13  and  _14
REMARK    8  A    between atoms: _13  and  _16
REMARK    9  A    between atoms: _16  and  _17
REMARK   10  A    between atoms: _20  and  _22
REMARK   11  A    between atoms: _22  and  _23
REMARK   12  A    between atoms: _25  and  _27
REMARK   13  A    between atoms: _27  and  _28
REMARK   14  A    between atoms: _31  and  _33
REMARK   15  A    between atoms: _33  and  _34
REMARK   16  A    between atoms: _33  and  _36
REMARK   17  A    between atoms: _36  and  _37
REMARK   18  A    between atoms: _42  and  _43
REMARK   19  A    between atoms: _45  and  _47
REMARK   20  A    between atoms: _47  and  _48
REMARK   21  A    between atoms: _47  and  _50
REMARK   22  A    between atoms: _50  and  _51
REMARK   23  A    between atoms: _54  and  _56
REMARK   24  A    between atoms: _56  and  _57
REMARK   25  A    between atoms: _56  and  _59
REMARK   26  A    between atoms: _59  and  _60
REMARK   27  A    between atoms: _60  and  _61
REMARK   28  A    between atoms: _63  and  _65
REMARK   29  A    between atoms: _65  and  _66
REMARK   30  A    between atoms: _65  and  _68
REMARK   31  A    between atoms: _68  and  _69
REMARK   32  A    between atoms: _69  and  _70
REMARK   33  A    between atoms: _73  and  _75
REMARK   34  A    between atoms: _75  and  _76
REMARK   35  A    between atoms: _75  and  _78
REMARK   36  A    between atoms: _78  and  _79
REMARK   37  A    between atoms: _82  and  _84
REMARK   38  A    between atoms: _84  and  _85
REMARK   39  A    between atoms: _84  and  _87
REMARK   40  A    between atoms: _87  and  _88
REMARK   41  A    between atoms: _93  and  _95
REMARK   42  A    between atoms: _95  and  _96
REMARK   43  A    between atoms: _95  and  _98
REMARK   44  A    between atoms: _98  and  _99
REMARK   45  A    between atoms: _104  and  _105
REMARK   46  A    between atoms: _107  and  _109
REMARK   47  A    between atoms: _109  and  _110
REMARK   48  A    between atoms: _113  and  _115
REMARK   49  A    between atoms: _115  and  _116
REMARK   50  A    between atoms: _115  and  _118
REMARK   51  A    between atoms: _118  and  _119
REMARK   52  A    between atoms: _122  and  _124
REMARK   53  A    between atoms: _124  and  _125
REMARK   54  A    between atoms: _124  and  _127
REMARK   55  A    between atoms: _127  and  _128
REMARK   56  A    between atoms: _131  and  _133
REMARK   57  A    between atoms: _133  and  _134
REMARK   58  A    between atoms: _136  and  _138
REMARK   59  A    between atoms: _138  and  _139
REMARK   60  A    between atoms: _142  and  _144
REMARK   61  A    between atoms: _144  and  _145
REMARK   62  A    between atoms: _144  and  _147
REMARK   63  A    between atoms: _147  and  _148
REMARK   64  A    between atoms: _150  and  _152
REMARK   65  A    between atoms: _152  and  _153
REMARK   66  A    between atoms: _152  and  _155
REMARK   67  A    between atoms: _155  and  _156
REMARK   68  A    between atoms: _156  and  _157
REMARK   69  A    between atoms: _162  and  _164
REMARK   70  A    between atoms: _164  and  _165
REMARK   71  A    between atoms: _164  and  _167
REMARK   72  A    between atoms: _167  and  _168
REMARK   73  A    between atoms: _171  and  _173
REMARK   74  A    between atoms: _173  and  _174
REMARK   75  A    between atoms: _173  and  _176
REMARK   76  A    between atoms: _176  and  _177
REMARK   77  A    between atoms: _180  and  _182
REMARK   78  A    between atoms: _182  and  _183
REMARK   79  A    between atoms: _182  and  _185
REMARK   80  A    between atoms: _185  and  _186
REMARK   81  A    between atoms: _189  and  _191
REMARK   82  A    between atoms: _191  and  _192
REMARK   83  A    between atoms: _191  and  _194
REMARK   84  A    between atoms: _194  and  _195
REMARK   85  A    between atoms: _198  and  _200
REMARK   86  A    between atoms: _200  and  _201
REMARK   87  A    between atoms: _200  and  _203
REMARK   88  A    between atoms: _203  and  _204
REMARK   89  A    between atoms: _209  and  _211
REMARK   90  A    between atoms: _211  and  _212
REMARK   91  A    between atoms: _211  and  _214
REMARK   92  A    between atoms: _214  and  _215
REMARK   93  A    between atoms: _225  and  _227
REMARK   94  A    between atoms: _227  and  _228
REMARK   95  A    between atoms: _227  and  _230
REMARK   96  A    between atoms: _230  and  _231
REMARK   97  A    between atoms: _231  and  _232
REMARK   98  A    between atoms: _232  and  _233
REMARK   99  A    between atoms: _233  and  _234
REMARK  100  A    between atoms: _238  and  _240
REMARK  101  A    between atoms: _240  and  _241
REMARK  102  A    between atoms: _240  and  _243
REMARK  103  A    between atoms: _243  and  _244
REMARK  104  A    between atoms: _247  and  _249
REMARK  105  A    between atoms: _249  and  _250
REMARK  106  A    between atoms: _249  and  _252
REMARK  107  A    between atoms: _252  and  _253
REMARK  108  A    between atoms: _253  and  _254
REMARK  109  A    between atoms: _254  and  _255
REMARK  110  A    between atoms: _264  and  _266
REMARK  111  A    between atoms: _266  and  _267
REMARK  112  A    between atoms: _266  and  _269
REMARK  113  A    between atoms: _269  and  _270
REMARK                            x       y       z     vdW  Elec       q    Type
REMARK                         _______ _______ _______ _____ _____    ______ ____
ROOT
ATOM      1  O   HOH     1      11.224  19.496  14.534  0.00  0.00    +0.000 OA
ENDROOT
TORSDOF 0
REMARK  Name = ../refined-set-2016/4p58/4p58_pocket.pdb
REMARK  113 active torsions:
REMARK  status: ('A' for Active; 'I' for Inactive)
REMARK    1  A    between atoms: _1  and  _3
REMARK    2  A    between atoms: _3  and  _4
REMARK    3  A    between atoms: _3  and  _6
REMARK    4  A    between atoms: _6  and  _7
REMARK    5  A    between atoms: _7  and  _8
REMARK    6  A    between atoms: _11  and  _13
REMARK    7  A    between atoms: _13  and  _14
REMARK    8  A    between atoms: _13  and  _16
REMARK    9  A    between atoms: _16  and  _17
REMARK   10  A    between atoms: _20  and  _22
REMARK   11  A    between atoms: _22  and  _23
REMARK   12  A    between atoms: _25  and  _27
REMARK   13  A    between atoms: _27  and  _28
REMARK   14  A    between atoms: _31  and  _33
REMARK   15  A    between atoms: _33  and  _34
REMARK   16  A    between atoms: _33  and  _36
REMARK   17  A    between atoms: _36  and  _37
REMARK   18  A    between atoms: _42  and  _43
REMARK   19  A    between atoms: _45  and  _47
REMARK   20  A    between atoms: _47  and  _48
REMARK   21  A    between atoms: _47  and  _50
REMARK   22  A    between atoms: _50  and  _51
REMARK   23  A    between atoms: _54  and  _56
REMARK   24  A    between atoms: _56  and  _57
REMARK   25  A    between atoms: _56  and  _59
REMARK   26  A    between atoms: _59  and  _60
REMARK   27  A    between atoms: _60  and  _61
REMARK   28  A    between atoms: _63  and  _65
REMARK   29  A    between atoms: _65  and  _66
REMARK   30  A    between atoms: _65  and  _68
REMARK   31  A    between atoms: _68  and  _69
REMARK   32  A    between atoms: _69  and  _70
REMARK   33  A    between atoms: _73  and  _75
REMARK   34  A    between atoms: _75  and  _76
REMARK   35  A    between atoms: _75  and  _78
REMARK   36  A    between atoms: _78  and  _79
REMARK   37  A    between atoms: _82  and  _84
REMARK   38  A    between atoms: _84  and  _85
REMARK   39  A    between atoms: _84  and  _87
REMARK   40  A    between atoms: _87  and  _88
REMARK   41  A    between atoms: _93  and  _95
REMARK   42  A    between atoms: _95  and  _96
REMARK   43  A    between atoms: _95  and  _98
REMARK   44  A    between atoms: _98  and  _99
REMARK   45  A    between atoms: _104  and  _105
REMARK   46  A    between atoms: _107  and  _109
REMARK   47  A    between atoms: _109  and  _110
REMARK   48  A    between atoms: _113  and  _115
REMARK   49  A    between atoms: _115  and  _116
REMARK   50  A    between atoms: _115  and  _118
REMARK   51  A    between atoms: _118  and  _119
REMARK   52  A    between atoms: _122  and  _124
REMARK   53  A    between atoms: _124  and  _125
REMARK   54  A    between atoms: _124  and  _127
REMARK   55  A    between atoms: _127  and  _128
REMARK   56  A    between atoms: _131  and  _133
REMARK   57  A    between atoms: _133  and  _134
REMARK   58  A    between atoms: _136  and  _138
REMARK   59  A    between atoms: _138  and  _139
REMARK   60  A    between atoms: _142  and  _144
REMARK   61  A    between atoms: _144  and  _145
REMARK   62  A    between atoms: _144  and  _147
REMARK   63  A    between atoms: _147  and  _148
REMARK   64  A    between atoms: _150  and  _152
REMARK   65  A    between atoms: _152  and  _153
REMARK   66  A    between atoms: _152  and  _155
REMARK   67  A    between atoms: _155  and  _156
REMARK   68  A    between atoms: _156  and  _157
REMARK   69  A    between atoms: _162  and  _164
REMARK   70  A    between atoms: _164  and  _165
REMARK   71  A    between atoms: _164  and  _167
REMARK   72  A    between atoms: _167  and  _168
REMARK   73  A    between atoms: _171  and  _173
REMARK   74  A    between atoms: _173  and  _174
REMARK   75  A    between atoms: _173  and  _176
REMARK   76  A    between atoms: _176  and  _177
REMARK   77  A    between atoms: _180  and  _182
REMARK   78  A    between atoms: _182  and  _183
REMARK   79  A    between atoms: _182  and  _185
REMARK   80  A    between atoms: _185  and  _186
REMARK   81  A    between atoms: _189  and  _191
REMARK   82  A    between atoms: _191  and  _192
REMARK   83  A    between atoms: _191  and  _194
REMARK   84  A    between atoms: _194  and  _195
REMARK   85  A    between atoms: _198  and  _200
REMARK   86  A    between atoms: _200  and  _201
REMARK   87  A    between atoms: _200  and  _203
REMARK   88  A    between atoms: _203  and  _204
REMARK   89  A    between atoms: _209  and  _211
REMARK   90  A    between atoms: _211  and  _212
REMARK   91  A    between atoms: _211  and  _214
REMARK   92  A    between atoms: _214  and  _215
REMARK   93  A    between atoms: _225  and  _227
REMARK   94  A    between atoms: _227  and  _228
REMARK   95  A    between atoms: _227  and  _230
REMARK   96  A    between atoms: _230  and  _231
REMARK   97  A    between atoms: _231  and  _232
REMARK   98  A    between atoms: _232  and  _233
REMARK   99  A    between atoms: _233  and  _234
REMARK  100  A    between atoms: _238  and  _240
REMARK  101  A    between atoms: _240  and  _241
REMARK  102  A    between atoms: _240  and  _243
REMARK  103  A    between atoms: _243  and  _244
REMARK  104  A    between atoms: _247  and  _249
REMARK  105  A    between atoms: _249  and  _250
REMARK  106  A    between atoms: _249  and  _252
REMARK  107  A    between atoms: _252  and  _253
REMARK  108  A    between atoms: _253  and  _254
REMARK  109  A    between atoms: _254  and  _255
REMARK  110  A    between atoms: _264  and  _266
REMARK  111  A    between atoms: _266  and  _267
REMARK  112  A    between atoms: _266  and  _269
REMARK  113  A    between atoms: _269  and  _270
REMARK                            x       y       z     vdW  Elec       q    Type
REMARK                         _______ _______ _______ _____ _____    ______ ____
ROOT
ATOM      1  O   HOH     1       9.652  20.174  13.316  0.00  0.00    +0.000 OA
ENDROOT
TORSDOF 0
REMARK  Name = ../refined-set-2016/4p58/4p58_pocket.pdb
REMARK  113 active torsions:
REMARK  status: ('A' for Active; 'I' for Inactive)
REMARK    1  A    between atoms: _1  and  _3
REMARK    2  A    between atoms: _3  and  _4
REMARK    3  A    between atoms: _3  and  _6
REMARK    4  A    between atoms: _6  and  _7
REMARK    5  A    between atoms: _7  and  _8
REMARK    6  A    between atoms: _11  and  _13
REMARK    7  A    between atoms: _13  and  _14
REMARK    8  A    between atoms: _13  and  _16
REMARK    9  A    between atoms: _16  and  _17
REMARK   10  A    between atoms: _20  and  _22
REMARK   11  A    between atoms: _22  and  _23
REMARK   12  A    between atoms: _25  and  _27
REMARK   13  A    between atoms: _27  and  _28
REMARK   14  A    between atoms: _31  and  _33
REMARK   15  A    between atoms: _33  and  _34
REMARK   16  A    between atoms: _33  and  _36
REMARK   17  A    between atoms: _36  and  _37
REMARK   18  A    between atoms: _42  and  _43
REMARK   19  A    between atoms: _45  and  _47
REMARK   20  A    between atoms: _47  and  _48
REMARK   21  A    between atoms: _47  and  _50
REMARK   22  A    between atoms: _50  and  _51
REMARK   23  A    between atoms: _54  and  _56
REMARK   24  A    between atoms: _56  and  _57
REMARK   25  A    between atoms: _56  and  _59
REMARK   26  A    between atoms: _59  and  _60
REMARK   27  A    between atoms: _60  and  _61
REMARK   28  A    between atoms: _63  and  _65
REMARK   29  A    between atoms: _65  and  _66
REMARK   30  A    between atoms: _65  and  _68
REMARK   31  A    between atoms: _68  and  _69
REMARK   32  A    between atoms: _69  and  _70
REMARK   33  A    between atoms: _73  and  _75
REMARK   34  A    between atoms: _75  and  _76
REMARK   35  A    between atoms: _75  and  _78
REMARK   36  A    between atoms: _78  and  _79
REMARK   37  A    between atoms: _82  and  _84
REMARK   38  A    between atoms: _84  and  _85
REMARK   39  A    between atoms: _84  and  _87
REMARK   40  A    between atoms: _87  and  _88
REMARK   41  A    between atoms: _93  and  _95
REMARK   42  A    between atoms: _95  and  _96
REMARK   43  A    between atoms: _95  and  _98
REMARK   44  A    between atoms: _98  and  _99
REMARK   45  A    between atoms: _104  and  _105
REMARK   46  A    between atoms: _107  and  _109
REMARK   47  A    between atoms: _109  and  _110
REMARK   48  A    between atoms: _113  and  _115
REMARK   49  A    between atoms: _115  and  _116
REMARK   50  A    between atoms: _115  and  _118
REMARK   51  A    between atoms: _118  and  _119
REMARK   52  A    between atoms: _122  and  _124
REMARK   53  A    between atoms: _124  and  _125
REMARK   54  A    between atoms: _124  and  _127
REMARK   55  A    between atoms: _127  and  _128
REMARK   56  A    between atoms: _131  and  _133
REMARK   57  A    between atoms: _133  and  _134
REMARK   58  A    between atoms: _136  and  _138
REMARK   59  A    between atoms: _138  and  _139
REMARK   60  A    between atoms: _142  and  _144
REMARK   61  A    between atoms: _144  and  _145
REMARK   62  A    between atoms: _144  and  _147
REMARK   63  A    between atoms: _147  and  _148
REMARK   64  A    between atoms: _150  and  _152
REMARK   65  A    between atoms: _152  and  _153
REMARK   66  A    between atoms: _152  and  _155
REMARK   67  A    between atoms: _155  and  _156
REMARK   68  A    between atoms: _156  and  _157
REMARK   69  A    between atoms: _162  and  _164
REMARK   70  A    between atoms: _164  and  _165
REMARK   71  A    between atoms: _164  and  _167
REMARK   72  A    between atoms: _167  and  _168
REMARK   73  A    between atoms: _171  and  _173
REMARK   74  A    between atoms: _173  and  _174
REMARK   75  A    between atoms: _173  and  _176
REMARK   76  A    between atoms: _176  and  _177
REMARK   77  A    between atoms: _180  and  _182
REMARK   78  A    between atoms: _182  and  _183
REMARK   79  A    between atoms: _182  and  _185
REMARK   80  A    between atoms: _185  and  _186
REMARK   81  A    between atoms: _189  and  _191
REMARK   82  A    between atoms: _191  and  _192
REMARK   83  A    between atoms: _191  and  _194
REMARK   84  A    between atoms: _194  and  _195
REMARK   85  A    between atoms: _198  and  _200
REMARK   86  A    between atoms: _200  and  _201
REMARK   87  A    between atoms: _200  and  _203
REMARK   88  A    between atoms: _203  and  _204
REMARK   89  A    between atoms: _209  and  _211
REMARK   90  A    between atoms: _211  and  _212
REMARK   91  A    between atoms: _211  and  _214
REMARK   92  A    between atoms: _214  and  _215
REMARK   93  A    between atoms: _225  and  _227
REMARK   94  A    between atoms: _227  and  _228
REMARK   95  A    between atoms: _227  and  _230
REMARK   96  A    between atoms: _230  and  _231
REMARK   97  A    between atoms: _231  and  _232
REMARK   98  A    between atoms: _232  and  _233
REMARK   99  A    between atoms: _233  and  _234
REMARK  100  A    between atoms: _238  and  _240
REMARK  101  A    between atoms: _240  and  _241
REMARK  102  A    between atoms: _240  and  _243
REMARK  103  A    between atoms: _243  and  _244
REMARK  104  A    between atoms: _247  and  _249
REMARK  105  A    between atoms: _249  and  _250
REMARK  106  A    between atoms: _249  and  _252
REMARK  107  A    between atoms: _252  and  _253
REMARK  108  A    between atoms: _253  and  _254
REMARK  109  A    between atoms: _254  and  _255
REMARK  110  A    between atoms: _264  and  _266
REMARK  111  A    between atoms: _266  and  _267
REMARK  112  A    between atoms: _266  and  _269
REMARK  113  A    between atoms: _269  and  _270
REMARK                            x       y       z     vdW  Elec       q    Type
REMARK                         _______ _______ _______ _____ _____    ______ ____
ROOT
ATOM      1  O   HOH     1      12.231  23.945  16.844  0.00  0.00    +0.000 OA
ENDROOT
TORSDOF 0
REMARK  Name = ../refined-set-2016/4p58/4p58_pocket.pdb
REMARK  113 active torsions:
REMARK  status: ('A' for Active; 'I' for Inactive)
REMARK    1  A    between atoms: _1  and  _3
REMARK    2  A    between atoms: _3  and  _4
REMARK    3  A    between atoms: _3  and  _6
REMARK    4  A    between atoms: _6  and  _7
REMARK    5  A    between atoms: _7  and  _8
REMARK    6  A    between atoms: _11  and  _13
REMARK    7  A    between atoms: _13  and  _14
REMARK    8  A    between atoms: _13  and  _16
REMARK    9  A    between atoms: _16  and  _17
REMARK   10  A    between atoms: _20  and  _22
REMARK   11  A    between atoms: _22  and  _23
REMARK   12  A    between atoms: _25  and  _27
REMARK   13  A    between atoms: _27  and  _28
REMARK   14  A    between atoms: _31  and  _33
REMARK   15  A    between atoms: _33  and  _34
REMARK   16  A    between atoms: _33  and  _36
REMARK   17  A    between atoms: _36  and  _37
REMARK   18  A    between atoms: _42  and  _43
REMARK   19  A    between atoms: _45  and  _47
REMARK   20  A    between atoms: _47  and  _48
REMARK   21  A    between atoms: _47  and  _50
REMARK   22  A    between atoms: _50  and  _51
REMARK   23  A    between atoms: _54  and  _56
REMARK   24  A    between atoms: _56  and  _57
REMARK   25  A    between atoms: _56  and  _59
REMARK   26  A    between atoms: _59  and  _60
REMARK   27  A    between atoms: _60  and  _61
REMARK   28  A    between atoms: _63  and  _65
REMARK   29  A    between atoms: _65  and  _66
REMARK   30  A    between atoms: _65  and  _68
REMARK   31  A    between atoms: _68  and  _69
REMARK   32  A    between atoms: _69  and  _70
REMARK   33  A    between atoms: _73  and  _75
REMARK   34  A    between atoms: _75  and  _76
REMARK   35  A    between atoms: _75  and  _78
REMARK   36  A    between atoms: _78  and  _79
REMARK   37  A    between atoms: _82  and  _84
REMARK   38  A    between atoms: _84  and  _85
REMARK   39  A    between atoms: _84  and  _87
REMARK   40  A    between atoms: _87  and  _88
REMARK   41  A    between atoms: _93  and  _95
REMARK   42  A    between atoms: _95  and  _96
REMARK   43  A    between atoms: _95  and  _98
REMARK   44  A    between atoms: _98  and  _99
REMARK   45  A    between atoms: _104  and  _105
REMARK   46  A    between atoms: _107  and  _109
REMARK   47  A    between atoms: _109  and  _110
REMARK   48  A    between atoms: _113  and  _115
REMARK   49  A    between atoms: _115  and  _116
REMARK   50  A    between atoms: _115  and  _118
REMARK   51  A    between atoms: _118  and  _119
REMARK   52  A    between atoms: _122  and  _124
REMARK   53  A    between atoms: _124  and  _125
REMARK   54  A    between atoms: _124  and  _127
REMARK   55  A    between atoms: _127  and  _128
REMARK   56  A    between atoms: _131  and  _133
REMARK   57  A    between atoms: _133  and  _134
REMARK   58  A    between atoms: _136  and  _138
REMARK   59  A    between atoms: _138  and  _139
REMARK   60  A    between atoms: _142  and  _144
REMARK   61  A    between atoms: _144  and  _145
REMARK   62  A    between atoms: _144  and  _147
REMARK   63  A    between atoms: _147  and  _148
REMARK   64  A    between atoms: _150  and  _152
REMARK   65  A    between atoms: _152  and  _153
REMARK   66  A    between atoms: _152  and  _155
REMARK   67  A    between atoms: _155  and  _156
REMARK   68  A    between atoms: _156  and  _157
REMARK   69  A    between atoms: _162  and  _164
REMARK   70  A    between atoms: _164  and  _165
REMARK   71  A    between atoms: _164  and  _167
REMARK   72  A    between atoms: _167  and  _168
REMARK   73  A    between atoms: _171  and  _173
REMARK   74  A    between atoms: _173  and  _174
REMARK   75  A    between atoms: _173  and  _176
REMARK   76  A    between atoms: _176  and  _177
REMARK   77  A    between atoms: _180  and  _182
REMARK   78  A    between atoms: _182  and  _183
REMARK   79  A    between atoms: _182  and  _185
REMARK   80  A    between atoms: _185  and  _186
REMARK   81  A    between atoms: _189  and  _191
REMARK   82  A    between atoms: _191  and  _192
REMARK   83  A    between atoms: _191  and  _194
REMARK   84  A    between atoms: _194  and  _195
REMARK   85  A    between atoms: _198  and  _200
REMARK   86  A    between atoms: _200  and  _201
REMARK   87  A    between atoms: _200  and  _203
REMARK   88  A    between atoms: _203  and  _204
REMARK   89  A    between atoms: _209  and  _211
REMARK   90  A    between atoms: _211  and  _212
REMARK   91  A    between atoms: _211  and  _214
REMARK   92  A    between atoms: _214  and  _215
REMARK   93  A    between atoms: _225  and  _227
REMARK   94  A    between atoms: _227  and  _228
REMARK   95  A    between atoms: _227  and  _230
REMARK   96  A    between atoms: _230  and  _231
REMARK   97  A    between atoms: _231  and  _232
REMARK   98  A    between atoms: _232  and  _233
REMARK   99  A    between atoms: _233  and  _234
REMARK  100  A    between atoms: _238  and  _240
REMARK  101  A    between atoms: _240  and  _241
REMARK  102  A    between atoms: _240  and  _243
REMARK  103  A    between atoms: _243  and  _244
REMARK  104  A    between atoms: _247  and  _249
REMARK  105  A    between atoms: _249  and  _250
REMARK  106  A    between atoms: _249  and  _252
REMARK  107  A    between atoms: _252  and  _253
REMARK  108  A    between atoms: _253  and  _254
REMARK  109  A    between atoms: _254  and  _255
REMARK  110  A    between atoms: _264  and  _266
REMARK  111  A    between atoms: _266  and  _267
REMARK  112  A    between atoms: _266  and  _269
REMARK  113  A    between atoms: _269  and  _270
REMARK                            x       y       z     vdW  Elec       q    Type
REMARK                         _______ _______ _______ _____ _____    ______ ____
ROOT
ATOM      1  O   HOH     1       8.902  24.127  14.762  0.00  0.00    +0.000 OA
ENDROOT
TORSDOF 0
REMARK  Name = ../refined-set-2016/4p58/4p58_pocket.pdb
REMARK  113 active torsions:
REMARK  status: ('A' for Active; 'I' for Inactive)
REMARK    1  A    between atoms: _1  and  _3
REMARK    2  A    between atoms: _3  and  _4
REMARK    3  A    between atoms: _3  and  _6
REMARK    4  A    between atoms: _6  and  _7
REMARK    5  A    between atoms: _7  and  _8
REMARK    6  A    between atoms: _11  and  _13
REMARK    7  A    between atoms: _13  and  _14
REMARK    8  A    between atoms: _13  and  _16
REMARK    9  A    between atoms: _16  and  _17
REMARK   10  A    between atoms: _20  and  _22
REMARK   11  A    between atoms: _22  and  _23
REMARK   12  A    between atoms: _25  and  _27
REMARK   13  A    between atoms: _27  and  _28
REMARK   14  A    between atoms: _31  and  _33
REMARK   15  A    between atoms: _33  and  _34
REMARK   16  A    between atoms: _33  and  _36
REMARK   17  A    between atoms: _36  and  _37
REMARK   18  A    between atoms: _42  and  _43
REMARK   19  A    between atoms: _45  and  _47
REMARK   20  A    between atoms: _47  and  _48
REMARK   21  A    between atoms: _47  and  _50
REMARK   22  A    between atoms: _50  and  _51
REMARK   23  A    between atoms: _54  and  _56
REMARK   24  A    between atoms: _56  and  _57
REMARK   25  A    between atoms: _56  and  _59
REMARK   26  A    between atoms: _59  and  _60
REMARK   27  A    between atoms: _60  and  _61
REMARK   28  A    between atoms: _63  and  _65
REMARK   29  A    between atoms: _65  and  _66
REMARK   30  A    between atoms: _65  and  _68
REMARK   31  A    between atoms: _68  and  _69
REMARK   32  A    between atoms: _69  and  _70
REMARK   33  A    between atoms: _73  and  _75
REMARK   34  A    between atoms: _75  and  _76
REMARK   35  A    between atoms: _75  and  _78
REMARK   36  A    between atoms: _78  and  _79
REMARK   37  A    between atoms: _82  and  _84
REMARK   38  A    between atoms: _84  and  _85
REMARK   39  A    between atoms: _84  and  _87
REMARK   40  A    between atoms: _87  and  _88
REMARK   41  A    between atoms: _93  and  _95
REMARK   42  A    between atoms: _95  and  _96
REMARK   43  A    between atoms: _95  and  _98
REMARK   44  A    between atoms: _98  and  _99
REMARK   45  A    between atoms: _104  and  _105
REMARK   46  A    between atoms: _107  and  _109
REMARK   47  A    between atoms: _109  and  _110
REMARK   48  A    between atoms: _113  and  _115
REMARK   49  A    between atoms: _115  and  _116
REMARK   50  A    between atoms: _115  and  _118
REMARK   51  A    between atoms: _118  and  _119
REMARK   52  A    between atoms: _122  and  _124
REMARK   53  A    between atoms: _124  and  _125
REMARK   54  A    between atoms: _124  and  _127
REMARK   55  A    between atoms: _127  and  _128
REMARK   56  A    between atoms: _131  and  _133
REMARK   57  A    between atoms: _133  and  _134
REMARK   58  A    between atoms: _136  and  _138
REMARK   59  A    between atoms: _138  and  _139
REMARK   60  A    between atoms: _142  and  _144
REMARK   61  A    between atoms: _144  and  _145
REMARK   62  A    between atoms: _144  and  _147
REMARK   63  A    between atoms: _147  and  _148
REMARK   64  A    between atoms: _150  and  _152
REMARK   65  A    between atoms: _152  and  _153
REMARK   66  A    between atoms: _152  and  _155
REMARK   67  A    between atoms: _155  and  _156
REMARK   68  A    between atoms: _156  and  _157
REMARK   69  A    between atoms: _162  and  _164
REMARK   70  A    between atoms: _164  and  _165
REMARK   71  A    between atoms: _164  and  _167
REMARK   72  A    between atoms: _167  and  _168
REMARK   73  A    between atoms: _171  and  _173
REMARK   74  A    between atoms: _173  and  _174
REMARK   75  A    between atoms: _173  and  _176
REMARK   76  A    between atoms: _176  and  _177
REMARK   77  A    between atoms: _180  and  _182
REMARK   78  A    between atoms: _182  and  _183
REMARK   79  A    between atoms: _182  and  _185
REMARK   80  A    between atoms: _185  and  _186
REMARK   81  A    between atoms: _189  and  _191
REMARK   82  A    between atoms: _191  and  _192
REMARK   83  A    between atoms: _191  and  _194
REMARK   84  A    between atoms: _194  and  _195
REMARK   85  A    between atoms: _198  and  _200
REMARK   86  A    between atoms: _200  and  _201
REMARK   87  A    between atoms: _200  and  _203
REMARK   88  A    between atoms: _203  and  _204
REMARK   89  A    between atoms: _209  and  _211
REMARK   90  A    between atoms: _211  and  _212
REMARK   91  A    between atoms: _211  and  _214
REMARK   92  A    between atoms: _214  and  _215
REMARK   93  A    between atoms: _225  and  _227
REMARK   94  A    between atoms: _227  and  _228
REMARK   95  A    between atoms: _227  and  _230
REMARK   96  A    between atoms: _230  and  _231
REMARK   97  A    between atoms: _231  and  _232
REMARK   98  A    between atoms: _232  and  _233
REMARK   99  A    between atoms: _233  and  _234
REMARK  100  A    between atoms: _238  and  _240
REMARK  101  A    between atoms: _240  and  _241
REMARK  102  A    between atoms: _240  and  _243
REMARK  103  A    between atoms: _243  and  _244
REMARK  104  A    between atoms: _247  and  _249
REMARK  105  A    between atoms: _249  and  _250
REMARK  106  A    between atoms: _249  and  _252
REMARK  107  A    between atoms: _252  and  _253
REMARK  108  A    between atoms: _253  and  _254
REMARK  109  A    between atoms: _254  and  _255
REMARK  110  A    between atoms: _264  and  _266
REMARK  111  A    between atoms: _266  and  _267
REMARK  112  A    between atoms: _266  and  _269
REMARK  113  A    between atoms: _269  and  _270
REMARK                            x       y       z     vdW  Elec       q    Type
REMARK                         _______ _______ _______ _____ _____    ______ ____
ROOT
ATOM      1  O   HOH     1      11.113  22.303  14.356  0.00  0.00    +0.000 OA
ENDROOT
TORSDOF 0
REMARK  Name = ../refined-set-2016/4p58/4p58_pocket.pdb
REMARK  113 active torsions:
REMARK  status: ('A' for Active; 'I' for Inactive)
REMARK    1  A    between atoms: _1  and  _3
REMARK    2  A    between atoms: _3  and  _4
REMARK    3  A    between atoms: _3  and  _6
REMARK    4  A    between atoms: _6  and  _7
REMARK    5  A    between atoms: _7  and  _8
REMARK    6  A    between atoms: _11  and  _13
REMARK    7  A    between atoms: _13  and  _14
REMARK    8  A    between atoms: _13  and  _16
REMARK    9  A    between atoms: _16  and  _17
REMARK   10  A    between atoms: _20  and  _22
REMARK   11  A    between atoms: _22  and  _23
REMARK   12  A    between atoms: _25  and  _27
REMARK   13  A    between atoms: _27  and  _28
REMARK   14  A    between atoms: _31  and  _33
REMARK   15  A    between atoms: _33  and  _34
REMARK   16  A    between atoms: _33  and  _36
REMARK   17  A    between atoms: _36  and  _37
REMARK   18  A    between atoms: _42  and  _43
REMARK   19  A    between atoms: _45  and  _47
REMARK   20  A    between atoms: _47  and  _48
REMARK   21  A    between atoms: _47  and  _50
REMARK   22  A    between atoms: _50  and  _51
REMARK   23  A    between atoms: _54  and  _56
REMARK   24  A    between atoms: _56  and  _57
REMARK   25  A    between atoms: _56  and  _59
REMARK   26  A    between atoms: _59  and  _60
REMARK   27  A    between atoms: _60  and  _61
REMARK   28  A    between atoms: _63  and  _65
REMARK   29  A    between atoms: _65  and  _66
REMARK   30  A    between atoms: _65  and  _68
REMARK   31  A    between atoms: _68  and  _69
REMARK   32  A    between atoms: _69  and  _70
REMARK   33  A    between atoms: _73  and  _75
REMARK   34  A    between atoms: _75  and  _76
REMARK   35  A    between atoms: _75  and  _78
REMARK   36  A    between atoms: _78  and  _79
REMARK   37  A    between atoms: _82  and  _84
REMARK   38  A    between atoms: _84  and  _85
REMARK   39  A    between atoms: _84  and  _87
REMARK   40  A    between atoms: _87  and  _88
REMARK   41  A    between atoms: _93  and  _95
REMARK   42  A    between atoms: _95  and  _96
REMARK   43  A    between atoms: _95  and  _98
REMARK   44  A    between atoms: _98  and  _99
REMARK   45  A    between atoms: _104  and  _105
REMARK   46  A    between atoms: _107  and  _109
REMARK   47  A    between atoms: _109  and  _110
REMARK   48  A    between atoms: _113  and  _115
REMARK   49  A    between atoms: _115  and  _116
REMARK   50  A    between atoms: _115  and  _118
REMARK   51  A    between atoms: _118  and  _119
REMARK   52  A    between atoms: _122  and  _124
REMARK   53  A    between atoms: _124  and  _125
REMARK   54  A    between atoms: _124  and  _127
REMARK   55  A    between atoms: _127  and  _128
REMARK   56  A    between atoms: _131  and  _133
REMARK   57  A    between atoms: _133  and  _134
REMARK   58  A    between atoms: _136  and  _138
REMARK   59  A    between atoms: _138  and  _139
REMARK   60  A    between atoms: _142  and  _144
REMARK   61  A    between atoms: _144  and  _145
REMARK   62  A    between atoms: _144  and  _147
REMARK   63  A    between atoms: _147  and  _148
REMARK   64  A    between atoms: _150  and  _152
REMARK   65  A    between atoms: _152  and  _153
REMARK   66  A    between atoms: _152  and  _155
REMARK   67  A    between atoms: _155  and  _156
REMARK   68  A    between atoms: _156  and  _157
REMARK   69  A    between atoms: _162  and  _164
REMARK   70  A    between atoms: _164  and  _165
REMARK   71  A    between atoms: _164  and  _167
REMARK   72  A    between atoms: _167  and  _168
REMARK   73  A    between atoms: _171  and  _173
REMARK   74  A    between atoms: _173  and  _174
REMARK   75  A    between atoms: _173  and  _176
REMARK   76  A    between atoms: _176  and  _177
REMARK   77  A    between atoms: _180  and  _182
REMARK   78  A    between atoms: _182  and  _183
REMARK   79  A    between atoms: _182  and  _185
REMARK   80  A    between atoms: _185  and  _186
REMARK   81  A    between atoms: _189  and  _191
REMARK   82  A    between atoms: _191  and  _192
REMARK   83  A    between atoms: _191  and  _194
REMARK   84  A    between atoms: _194  and  _195
REMARK   85  A    between atoms: _198  and  _200
REMARK   86  A    between atoms: _200  and  _201
REMARK   87  A    between atoms: _200  and  _203
REMARK   88  A    between atoms: _203  and  _204
REMARK   89  A    between atoms: _209  and  _211
REMARK   90  A    between atoms: _211  and  _212
REMARK   91  A    between atoms: _211  and  _214
REMARK   92  A    between atoms: _214  and  _215
REMARK   93  A    between atoms: _225  and  _227
REMARK   94  A    between atoms: _227  and  _228
REMARK   95  A    between atoms: _227  and  _230
REMARK   96  A    between atoms: _230  and  _231
REMARK   97  A    between atoms: _231  and  _232
REMARK   98  A    between atoms: _232  and  _233
REMARK   99  A    between atoms: _233  and  _234
REMARK  100  A    between atoms: _238  and  _240
REMARK  101  A    between atoms: _240  and  _241
REMARK  102  A    between atoms: _240  and  _243
REMARK  103  A    between atoms: _243  and  _244
REMARK  104  A    between atoms: _247  and  _249
REMARK  105  A    between atoms: _249  and  _250
REMARK  106  A    between atoms: _249  and  _252
REMARK  107  A    between atoms: _252  and  _253
REMARK  108  A    between atoms: _253  and  _254
REMARK  109  A    between atoms: _254  and  _255
REMARK  110  A    between atoms: _264  and  _266
REMARK  111  A    between atoms: _266  and  _267
REMARK  112  A    between atoms: _266  and  _269
REMARK  113  A    between atoms: _269  and  _270
REMARK                            x       y       z     vdW  Elec       q    Type
REMARK                         _______ _______ _______ _____ _____    ______ ____
ROOT
ATOM      1  O   HOH     1      12.362  23.777  14.218  0.00  0.00    +0.000 OA
ENDROOT
TORSDOF 0
REMARK  Name = ../refined-set-2016/4p58/4p58_pocket.pdb
REMARK  113 active torsions:
REMARK  status: ('A' for Active; 'I' for Inactive)
REMARK    1  A    between atoms: _1  and  _3
REMARK    2  A    between atoms: _3  and  _4
REMARK    3  A    between atoms: _3  and  _6
REMARK    4  A    between atoms: _6  and  _7
REMARK    5  A    between atoms: _7  and  _8
REMARK    6  A    between atoms: _11  and  _13
REMARK    7  A    between atoms: _13  and  _14
REMARK    8  A    between atoms: _13  and  _16
REMARK    9  A    between atoms: _16  and  _17
REMARK   10  A    between atoms: _20  and  _22
REMARK   11  A    between atoms: _22  and  _23
REMARK   12  A    between atoms: _25  and  _27
REMARK   13  A    between atoms: _27  and  _28
REMARK   14  A    between atoms: _31  and  _33
REMARK   15  A    between atoms: _33  and  _34
REMARK   16  A    between atoms: _33  and  _36
REMARK   17  A    between atoms: _36  and  _37
REMARK   18  A    between atoms: _42  and  _43
REMARK   19  A    between atoms: _45  and  _47
REMARK   20  A    between atoms: _47  and  _48
REMARK   21  A    between atoms: _47  and  _50
REMARK   22  A    between atoms: _50  and  _51
REMARK   23  A    between atoms: _54  and  _56
REMARK   24  A    between atoms: _56  and  _57
REMARK   25  A    between atoms: _56  and  _59
REMARK   26  A    between atoms: _59  and  _60
REMARK   27  A    between atoms: _60  and  _61
REMARK   28  A    between atoms: _63  and  _65
REMARK   29  A    between atoms: _65  and  _66
REMARK   30  A    between atoms: _65  and  _68
REMARK   31  A    between atoms: _68  and  _69
REMARK   32  A    between atoms: _69  and  _70
REMARK   33  A    between atoms: _73  and  _75
REMARK   34  A    between atoms: _75  and  _76
REMARK   35  A    between atoms: _75  and  _78
REMARK   36  A    between atoms: _78  and  _79
REMARK   37  A    between atoms: _82  and  _84
REMARK   38  A    between atoms: _84  and  _85
REMARK   39  A    between atoms: _84  and  _87
REMARK   40  A    between atoms: _87  and  _88
REMARK   41  A    between atoms: _93  and  _95
REMARK   42  A    between atoms: _95  and  _96
REMARK   43  A    between atoms: _95  and  _98
REMARK   44  A    between atoms: _98  and  _99
REMARK   45  A    between atoms: _104  and  _105
REMARK   46  A    between atoms: _107  and  _109
REMARK   47  A    between atoms: _109  and  _110
REMARK   48  A    between atoms: _113  and  _115
REMARK   49  A    between atoms: _115  and  _116
REMARK   50  A    between atoms: _115  and  _118
REMARK   51  A    between atoms: _118  and  _119
REMARK   52  A    between atoms: _122  and  _124
REMARK   53  A    between atoms: _124  and  _125
REMARK   54  A    between atoms: _124  and  _127
REMARK   55  A    between atoms: _127  and  _128
REMARK   56  A    between atoms: _131  and  _133
REMARK   57  A    between atoms: _133  and  _134
REMARK   58  A    between atoms: _136  and  _138
REMARK   59  A    between atoms: _138  and  _139
REMARK   60  A    between atoms: _142  and  _144
REMARK   61  A    between atoms: _144  and  _145
REMARK   62  A    between atoms: _144  and  _147
REMARK   63  A    between atoms: _147  and  _148
REMARK   64  A    between atoms: _150  and  _152
REMARK   65  A    between atoms: _152  and  _153
REMARK   66  A    between atoms: _152  and  _155
REMARK   67  A    between atoms: _155  and  _156
REMARK   68  A    between atoms: _156  and  _157
REMARK   69  A    between atoms: _162  and  _164
REMARK   70  A    between atoms: _164  and  _165
REMARK   71  A    between atoms: _164  and  _167
REMARK   72  A    between atoms: _167  and  _168
REMARK   73  A    between atoms: _171  and  _173
REMARK   74  A    between atoms: _173  and  _174
REMARK   75  A    between atoms: _173  and  _176
REMARK   76  A    between atoms: _176  and  _177
REMARK   77  A    between atoms: _180  and  _182
REMARK   78  A    between atoms: _182  and  _183
REMARK   79  A    between atoms: _182  and  _185
REMARK   80  A    between atoms: _185  and  _186
REMARK   81  A    between atoms: _189  and  _191
REMARK   82  A    between atoms: _191  and  _192
REMARK   83  A    between atoms: _191  and  _194
REMARK   84  A    between atoms: _194  and  _195
REMARK   85  A    between atoms: _198  and  _200
REMARK   86  A    between atoms: _200  and  _201
REMARK   87  A    between atoms: _200  and  _203
REMARK   88  A    between atoms: _203  and  _204
REMARK   89  A    between atoms: _209  and  _211
REMARK   90  A    between atoms: _211  and  _212
REMARK   91  A    between atoms: _211  and  _214
REMARK   92  A    between atoms: _214  and  _215
REMARK   93  A    between atoms: _225  and  _227
REMARK   94  A    between atoms: _227  and  _228
REMARK   95  A    between atoms: _227  and  _230
REMARK   96  A    between atoms: _230  and  _231
REMARK   97  A    between atoms: _231  and  _232
REMARK   98  A    between atoms: _232  and  _233
REMARK   99  A    between atoms: _233  and  _234
REMARK  100  A    between atoms: _238  and  _240
REMARK  101  A    between atoms: _240  and  _241
REMARK  102  A    between atoms: _240  and  _243
REMARK  103  A    between atoms: _243  and  _244
REMARK  104  A    between atoms: _247  and  _249
REMARK  105  A    between atoms: _249  and  _250
REMARK  106  A    between atoms: _249  and  _252
REMARK  107  A    between atoms: _252  and  _253
REMARK  108  A    between atoms: _253  and  _254
REMARK  109  A    between atoms: _254  and  _255
REMARK  110  A    between atoms: _264  and  _266
REMARK  111  A    between atoms: _266  and  _267
REMARK  112  A    between atoms: _266  and  _269
REMARK  113  A    between atoms: _269  and  _270
REMARK                            x       y       z     vdW  Elec       q    Type
REMARK                         _______ _______ _______ _____ _____    ______ ____
ROOT
ATOM      1  O   HOH     1      21.662  25.328  16.742  0.00  0.00    +0.000 OA
ENDROOT
TORSDOF 0
REMARK  Name = ../refined-set-2016/4p58/4p58_pocket.pdb
REMARK  113 active torsions:
REMARK  status: ('A' for Active; 'I' for Inactive)
REMARK    1  A    between atoms: _1  and  _3
REMARK    2  A    between atoms: _3  and  _4
REMARK    3  A    between atoms: _3  and  _6
REMARK    4  A    between atoms: _6  and  _7
REMARK    5  A    between atoms: _7  and  _8
REMARK    6  A    between atoms: _11  and  _13
REMARK    7  A    between atoms: _13  and  _14
REMARK    8  A    between atoms: _13  and  _16
REMARK    9  A    between atoms: _16  and  _17
REMARK   10  A    between atoms: _20  and  _22
REMARK   11  A    between atoms: _22  and  _23
REMARK   12  A    between atoms: _25  and  _27
REMARK   13  A    between atoms: _27  and  _28
REMARK   14  A    between atoms: _31  and  _33
REMARK   15  A    between atoms: _33  and  _34
REMARK   16  A    between atoms: _33  and  _36
REMARK   17  A    between atoms: _36  and  _37
REMARK   18  A    between atoms: _42  and  _43
REMARK   19  A    between atoms: _45  and  _47
REMARK   20  A    between atoms: _47  and  _48
REMARK   21  A    between atoms: _47  and  _50
REMARK   22  A    between atoms: _50  and  _51
REMARK   23  A    between atoms: _54  and  _56
REMARK   24  A    between atoms: _56  and  _57
REMARK   25  A    between atoms: _56  and  _59
REMARK   26  A    between atoms: _59  and  _60
REMARK   27  A    between atoms: _60  and  _61
REMARK   28  A    between atoms: _63  and  _65
REMARK   29  A    between atoms: _65  and  _66
REMARK   30  A    between atoms: _65  and  _68
REMARK   31  A    between atoms: _68  and  _69
REMARK   32  A    between atoms: _69  and  _70
REMARK   33  A    between atoms: _73  and  _75
REMARK   34  A    between atoms: _75  and  _76
REMARK   35  A    between atoms: _75  and  _78
REMARK   36  A    between atoms: _78  and  _79
REMARK   37  A    between atoms: _82  and  _84
REMARK   38  A    between atoms: _84  and  _85
REMARK   39  A    between atoms: _84  and  _87
REMARK   40  A    between atoms: _87  and  _88
REMARK   41  A    between atoms: _93  and  _95
REMARK   42  A    between atoms: _95  and  _96
REMARK   43  A    between atoms: _95  and  _98
REMARK   44  A    between atoms: _98  and  _99
REMARK   45  A    between atoms: _104  and  _105
REMARK   46  A    between atoms: _107  and  _109
REMARK   47  A    between atoms: _109  and  _110
REMARK   48  A    between atoms: _113  and  _115
REMARK   49  A    between atoms: _115  and  _116
REMARK   50  A    between atoms: _115  and  _118
REMARK   51  A    between atoms: _118  and  _119
REMARK   52  A    between atoms: _122  and  _124
REMARK   53  A    between atoms: _124  and  _125
REMARK   54  A    between atoms: _124  and  _127
REMARK   55  A    between atoms: _127  and  _128
REMARK   56  A    between atoms: _131  and  _133
REMARK   57  A    between atoms: _133  and  _134
REMARK   58  A    between atoms: _136  and  _138
REMARK   59  A    between atoms: _138  and  _139
REMARK   60  A    between atoms: _142  and  _144
REMARK   61  A    between atoms: _144  and  _145
REMARK   62  A    between atoms: _144  and  _147
REMARK   63  A    between atoms: _147  and  _148
REMARK   64  A    between atoms: _150  and  _152
REMARK   65  A    between atoms: _152  and  _153
REMARK   66  A    between atoms: _152  and  _155
REMARK   67  A    between atoms: _155  and  _156
REMARK   68  A    between atoms: _156  and  _157
REMARK   69  A    between atoms: _162  and  _164
REMARK   70  A    between atoms: _164  and  _165
REMARK   71  A    between atoms: _164  and  _167
REMARK   72  A    between atoms: _167  and  _168
REMARK   73  A    between atoms: _171  and  _173
REMARK   74  A    between atoms: _173  and  _174
REMARK   75  A    between atoms: _173  and  _176
REMARK   76  A    between atoms: _176  and  _177
REMARK   77  A    between atoms: _180  and  _182
REMARK   78  A    between atoms: _182  and  _183
REMARK   79  A    between atoms: _182  and  _185
REMARK   80  A    between atoms: _185  and  _186
REMARK   81  A    between atoms: _189  and  _191
REMARK   82  A    between atoms: _191  and  _192
REMARK   83  A    between atoms: _191  and  _194
REMARK   84  A    between atoms: _194  and  _195
REMARK   85  A    between atoms: _198  and  _200
REMARK   86  A    between atoms: _200  and  _201
REMARK   87  A    between atoms: _200  and  _203
REMARK   88  A    between atoms: _203  and  _204
REMARK   89  A    between atoms: _209  and  _211
REMARK   90  A    between atoms: _211  and  _212
REMARK   91  A    between atoms: _211  and  _214
REMARK   92  A    between atoms: _214  and  _215
REMARK   93  A    between atoms: _225  and  _227
REMARK   94  A    between atoms: _227  and  _228
REMARK   95  A    between atoms: _227  and  _230
REMARK   96  A    between atoms: _230  and  _231
REMARK   97  A    between atoms: _231  and  _232
REMARK   98  A    between atoms: _232  and  _233
REMARK   99  A    between atoms: _233  and  _234
REMARK  100  A    between atoms: _238  and  _240
REMARK  101  A    between atoms: _240  and  _241
REMARK  102  A    between atoms: _240  and  _243
REMARK  103  A    between atoms: _243  and  _244
REMARK  104  A    between atoms: _247  and  _249
REMARK  105  A    between atoms: _249  and  _250
REMARK  106  A    between atoms: _249  and  _252
REMARK  107  A    between atoms: _252  and  _253
REMARK  108  A    between atoms: _253  and  _254
REMARK  109  A    between atoms: _254  and  _255
REMARK  110  A    between atoms: _264  and  _266
REMARK  111  A    between atoms: _266  and  _267
REMARK  112  A    between atoms: _266  and  _269
REMARK  113  A    between atoms: _269  and  _270
REMARK                            x       y       z     vdW  Elec       q    Type
REMARK                         _______ _______ _______ _____ _____    ______ ____
ROOT
ATOM      1  O   HOH     1       9.387  14.917  21.822  0.00  0.00    +0.000 OA
ENDROOT
TORSDOF 0
REMARK  Name = ../refined-set-2016/4p58/4p58_pocket.pdb
REMARK  113 active torsions:
REMARK  status: ('A' for Active; 'I' for Inactive)
REMARK    1  A    between atoms: _1  and  _3
REMARK    2  A    between atoms: _3  and  _4
REMARK    3  A    between atoms: _3  and  _6
REMARK    4  A    between atoms: _6  and  _7
REMARK    5  A    between atoms: _7  and  _8
REMARK    6  A    between atoms: _11  and  _13
REMARK    7  A    between atoms: _13  and  _14
REMARK    8  A    between atoms: _13  and  _16
REMARK    9  A    between atoms: _16  and  _17
REMARK   10  A    between atoms: _20  and  _22
REMARK   11  A    between atoms: _22  and  _23
REMARK   12  A    between atoms: _25  and  _27
REMARK   13  A    between atoms: _27  and  _28
REMARK   14  A    between atoms: _31  and  _33
REMARK   15  A    between atoms: _33  and  _34
REMARK   16  A    between atoms: _33  and  _36
REMARK   17  A    between atoms: _36  and  _37
REMARK   18  A    between atoms: _42  and  _43
REMARK   19  A    between atoms: _45  and  _47
REMARK   20  A    between atoms: _47  and  _48
REMARK   21  A    between atoms: _47  and  _50
REMARK   22  A    between atoms: _50  and  _51
REMARK   23  A    between atoms: _54  and  _56
REMARK   24  A    between atoms: _56  and  _57
REMARK   25  A    between atoms: _56  and  _59
REMARK   26  A    between atoms: _59  and  _60
REMARK   27  A    between atoms: _60  and  _61
REMARK   28  A    between atoms: _63  and  _65
REMARK   29  A    between atoms: _65  and  _66
REMARK   30  A    between atoms: _65  and  _68
REMARK   31  A    between atoms: _68  and  _69
REMARK   32  A    between atoms: _69  and  _70
REMARK   33  A    between atoms: _73  and  _75
REMARK   34  A    between atoms: _75  and  _76
REMARK   35  A    between atoms: _75  and  _78
REMARK   36  A    between atoms: _78  and  _79
REMARK   37  A    between atoms: _82  and  _84
REMARK   38  A    between atoms: _84  and  _85
REMARK   39  A    between atoms: _84  and  _87
REMARK   40  A    between atoms: _87  and  _88
REMARK   41  A    between atoms: _93  and  _95
REMARK   42  A    between atoms: _95  and  _96
REMARK   43  A    between atoms: _95  and  _98
REMARK   44  A    between atoms: _98  and  _99
REMARK   45  A    between atoms: _104  and  _105
REMARK   46  A    between atoms: _107  and  _109
REMARK   47  A    between atoms: _109  and  _110
REMARK   48  A    between atoms: _113  and  _115
REMARK   49  A    between atoms: _115  and  _116
REMARK   50  A    between atoms: _115  and  _118
REMARK   51  A    between atoms: _118  and  _119
REMARK   52  A    between atoms: _122  and  _124
REMARK   53  A    between atoms: _124  and  _125
REMARK   54  A    between atoms: _124  and  _127
REMARK   55  A    between atoms: _127  and  _128
REMARK   56  A    between atoms: _131  and  _133
REMARK   57  A    between atoms: _133  and  _134
REMARK   58  A    between atoms: _136  and  _138
REMARK   59  A    between atoms: _138  and  _139
REMARK   60  A    between atoms: _142  and  _144
REMARK   61  A    between atoms: _144  and  _145
REMARK   62  A    between atoms: _144  and  _147
REMARK   63  A    between atoms: _147  and  _148
REMARK   64  A    between atoms: _150  and  _152
REMARK   65  A    between atoms: _152  and  _153
REMARK   66  A    between atoms: _152  and  _155
REMARK   67  A    between atoms: _155  and  _156
REMARK   68  A    between atoms: _156  and  _157
REMARK   69  A    between atoms: _162  and  _164
REMARK   70  A    between atoms: _164  and  _165
REMARK   71  A    between atoms: _164  and  _167
REMARK   72  A    between atoms: _167  and  _168
REMARK   73  A    between atoms: _171  and  _173
REMARK   74  A    between atoms: _173  and  _174
REMARK   75  A    between atoms: _173  and  _176
REMARK   76  A    between atoms: _176  and  _177
REMARK   77  A    between atoms: _180  and  _182
REMARK   78  A    between atoms: _182  and  _183
REMARK   79  A    between atoms: _182  and  _185
REMARK   80  A    between atoms: _185  and  _186
REMARK   81  A    between atoms: _189  and  _191
REMARK   82  A    between atoms: _191  and  _192
REMARK   83  A    between atoms: _191  and  _194
REMARK   84  A    between atoms: _194  and  _195
REMARK   85  A    between atoms: _198  and  _200
REMARK   86  A    between atoms: _200  and  _201
REMARK   87  A    between atoms: _200  and  _203
REMARK   88  A    between atoms: _203  and  _204
REMARK   89  A    between atoms: _209  and  _211
REMARK   90  A    between atoms: _211  and  _212
REMARK   91  A    between atoms: _211  and  _214
REMARK   92  A    between atoms: _214  and  _215
REMARK   93  A    between atoms: _225  and  _227
REMARK   94  A    between atoms: _227  and  _228
REMARK   95  A    between atoms: _227  and  _230
REMARK   96  A    between atoms: _230  and  _231
REMARK   97  A    between atoms: _231  and  _232
REMARK   98  A    between atoms: _232  and  _233
REMARK   99  A    between atoms: _233  and  _234
REMARK  100  A    between atoms: _238  and  _240
REMARK  101  A    between atoms: _240  and  _241
REMARK  102  A    between atoms: _240  and  _243
REMARK  103  A    between atoms: _243  and  _244
REMARK  104  A    between atoms: _247  and  _249
REMARK  105  A    between atoms: _249  and  _250
REMARK  106  A    between atoms: _249  and  _252
REMARK  107  A    between atoms: _252  and  _253
REMARK  108  A    between atoms: _253  and  _254
REMARK  109  A    between atoms: _254  and  _255
REMARK  110  A    between atoms: _264  and  _266
REMARK  111  A    between atoms: _266  and  _267
REMARK  112  A    between atoms: _266  and  _269
REMARK  113  A    between atoms: _269  and  _270
REMARK                            x       y       z     vdW  Elec       q    Type
REMARK                         _______ _______ _______ _____ _____    ______ ____
ROOT
ATOM      1  O   HOH     1      24.048  22.480  18.597  0.00  0.00    +0.000 OA
ENDROOT
TORSDOF 0
REMARK  Name = ../refined-set-2016/4p58/4p58_pocket.pdb
REMARK  113 active torsions:
REMARK  status: ('A' for Active; 'I' for Inactive)
REMARK    1  A    between atoms: _1  and  _3
REMARK    2  A    between atoms: _3  and  _4
REMARK    3  A    between atoms: _3  and  _6
REMARK    4  A    between atoms: _6  and  _7
REMARK    5  A    between atoms: _7  and  _8
REMARK    6  A    between atoms: _11  and  _13
REMARK    7  A    between atoms: _13  and  _14
REMARK    8  A    between atoms: _13  and  _16
REMARK    9  A    between atoms: _16  and  _17
REMARK   10  A    between atoms: _20  and  _22
REMARK   11  A    between atoms: _22  and  _23
REMARK   12  A    between atoms: _25  and  _27
REMARK   13  A    between atoms: _27  and  _28
REMARK   14  A    between atoms: _31  and  _33
REMARK   15  A    between atoms: _33  and  _34
REMARK   16  A    between atoms: _33  and  _36
REMARK   17  A    between atoms: _36  and  _37
REMARK   18  A    between atoms: _42  and  _43
REMARK   19  A    between atoms: _45  and  _47
REMARK   20  A    between atoms: _47  and  _48
REMARK   21  A    between atoms: _47  and  _50
REMARK   22  A    between atoms: _50  and  _51
REMARK   23  A    between atoms: _54  and  _56
REMARK   24  A    between atoms: _56  and  _57
REMARK   25  A    between atoms: _56  and  _59
REMARK   26  A    between atoms: _59  and  _60
REMARK   27  A    between atoms: _60  and  _61
REMARK   28  A    between atoms: _63  and  _65
REMARK   29  A    between atoms: _65  and  _66
REMARK   30  A    between atoms: _65  and  _68
REMARK   31  A    between atoms: _68  and  _69
REMARK   32  A    between atoms: _69  and  _70
REMARK   33  A    between atoms: _73  and  _75
REMARK   34  A    between atoms: _75  and  _76
REMARK   35  A    between atoms: _75  and  _78
REMARK   36  A    between atoms: _78  and  _79
REMARK   37  A    between atoms: _82  and  _84
REMARK   38  A    between atoms: _84  and  _85
REMARK   39  A    between atoms: _84  and  _87
REMARK   40  A    between atoms: _87  and  _88
REMARK   41  A    between atoms: _93  and  _95
REMARK   42  A    between atoms: _95  and  _96
REMARK   43  A    between atoms: _95  and  _98
REMARK   44  A    between atoms: _98  and  _99
REMARK   45  A    between atoms: _104  and  _105
REMARK   46  A    between atoms: _107  and  _109
REMARK   47  A    between atoms: _109  and  _110
REMARK   48  A    between atoms: _113  and  _115
REMARK   49  A    between atoms: _115  and  _116
REMARK   50  A    between atoms: _115  and  _118
REMARK   51  A    between atoms: _118  and  _119
REMARK   52  A    between atoms: _122  and  _124
REMARK   53  A    between atoms: _124  and  _125
REMARK   54  A    between atoms: _124  and  _127
REMARK   55  A    between atoms: _127  and  _128
REMARK   56  A    between atoms: _131  and  _133
REMARK   57  A    between atoms: _133  and  _134
REMARK   58  A    between atoms: _136  and  _138
REMARK   59  A    between atoms: _138  and  _139
REMARK   60  A    between atoms: _142  and  _144
REMARK   61  A    between atoms: _144  and  _145
REMARK   62  A    between atoms: _144  and  _147
REMARK   63  A    between atoms: _147  and  _148
REMARK   64  A    between atoms: _150  and  _152
REMARK   65  A    between atoms: _152  and  _153
REMARK   66  A    between atoms: _152  and  _155
REMARK   67  A    between atoms: _155  and  _156
REMARK   68  A    between atoms: _156  and  _157
REMARK   69  A    between atoms: _162  and  _164
REMARK   70  A    between atoms: _164  and  _165
REMARK   71  A    between atoms: _164  and  _167
REMARK   72  A    between atoms: _167  and  _168
REMARK   73  A    between atoms: _171  and  _173
REMARK   74  A    between atoms: _173  and  _174
REMARK   75  A    between atoms: _173  and  _176
REMARK   76  A    between atoms: _176  and  _177
REMARK   77  A    between atoms: _180  and  _182
REMARK   78  A    between atoms: _182  and  _183
REMARK   79  A    between atoms: _182  and  _185
REMARK   80  A    between atoms: _185  and  _186
REMARK   81  A    between atoms: _189  and  _191
REMARK   82  A    between atoms: _191  and  _192
REMARK   83  A    between atoms: _191  and  _194
REMARK   84  A    between atoms: _194  and  _195
REMARK   85  A    between atoms: _198  and  _200
REMARK   86  A    between atoms: _200  and  _201
REMARK   87  A    between atoms: _200  and  _203
REMARK   88  A    between atoms: _203  and  _204
REMARK   89  A    between atoms: _209  and  _211
REMARK   90  A    between atoms: _211  and  _212
REMARK   91  A    between atoms: _211  and  _214
REMARK   92  A    between atoms: _214  and  _215
REMARK   93  A    between atoms: _225  and  _227
REMARK   94  A    between atoms: _227  and  _228
REMARK   95  A    between atoms: _227  and  _230
REMARK   96  A    between atoms: _230  and  _231
REMARK   97  A    between atoms: _231  and  _232
REMARK   98  A    between atoms: _232  and  _233
REMARK   99  A    between atoms: _233  and  _234
REMARK  100  A    between atoms: _238  and  _240
REMARK  101  A    between atoms: _240  and  _241
REMARK  102  A    between atoms: _240  and  _243
REMARK  103  A    between atoms: _243  and  _244
REMARK  104  A    between atoms: _247  and  _249
REMARK  105  A    between atoms: _249  and  _250
REMARK  106  A    between atoms: _249  and  _252
REMARK  107  A    between atoms: _252  and  _253
REMARK  108  A    between atoms: _253  and  _254
REMARK  109  A    between atoms: _254  and  _255
REMARK  110  A    between atoms: _264  and  _266
REMARK  111  A    between atoms: _266  and  _267
REMARK  112  A    between atoms: _266  and  _269
REMARK  113  A    between atoms: _269  and  _270
REMARK                            x       y       z     vdW  Elec       q    Type
REMARK                         _______ _______ _______ _____ _____    ______ ____
ROOT
ATOM      1  O   HOH     1      19.996  17.964   9.090  0.00  0.00    +0.000 OA
ENDROOT
TORSDOF 0
REMARK  Name = ../refined-set-2016/4p58/4p58_pocket.pdb
REMARK  113 active torsions:
REMARK  status: ('A' for Active; 'I' for Inactive)
REMARK    1  A    between atoms: _1  and  _3
REMARK    2  A    between atoms: _3  and  _4
REMARK    3  A    between atoms: _3  and  _6
REMARK    4  A    between atoms: _6  and  _7
REMARK    5  A    between atoms: _7  and  _8
REMARK    6  A    between atoms: _11  and  _13
REMARK    7  A    between atoms: _13  and  _14
REMARK    8  A    between atoms: _13  and  _16
REMARK    9  A    between atoms: _16  and  _17
REMARK   10  A    between atoms: _20  and  _22
REMARK   11  A    between atoms: _22  and  _23
REMARK   12  A    between atoms: _25  and  _27
REMARK   13  A    between atoms: _27  and  _28
REMARK   14  A    between atoms: _31  and  _33
REMARK   15  A    between atoms: _33  and  _34
REMARK   16  A    between atoms: _33  and  _36
REMARK   17  A    between atoms: _36  and  _37
REMARK   18  A    between atoms: _42  and  _43
REMARK   19  A    between atoms: _45  and  _47
REMARK   20  A    between atoms: _47  and  _48
REMARK   21  A    between atoms: _47  and  _50
REMARK   22  A    between atoms: _50  and  _51
REMARK   23  A    between atoms: _54  and  _56
REMARK   24  A    between atoms: _56  and  _57
REMARK   25  A    between atoms: _56  and  _59
REMARK   26  A    between atoms: _59  and  _60
REMARK   27  A    between atoms: _60  and  _61
REMARK   28  A    between atoms: _63  and  _65
REMARK   29  A    between atoms: _65  and  _66
REMARK   30  A    between atoms: _65  and  _68
REMARK   31  A    between atoms: _68  and  _69
REMARK   32  A    between atoms: _69  and  _70
REMARK   33  A    between atoms: _73  and  _75
REMARK   34  A    between atoms: _75  and  _76
REMARK   35  A    between atoms: _75  and  _78
REMARK   36  A    between atoms: _78  and  _79
REMARK   37  A    between atoms: _82  and  _84
REMARK   38  A    between atoms: _84  and  _85
REMARK   39  A    between atoms: _84  and  _87
REMARK   40  A    between atoms: _87  and  _88
REMARK   41  A    between atoms: _93  and  _95
REMARK   42  A    between atoms: _95  and  _96
REMARK   43  A    between atoms: _95  and  _98
REMARK   44  A    between atoms: _98  and  _99
REMARK   45  A    between atoms: _104  and  _105
REMARK   46  A    between atoms: _107  and  _109
REMARK   47  A    between atoms: _109  and  _110
REMARK   48  A    between atoms: _113  and  _115
REMARK   49  A    between atoms: _115  and  _116
REMARK   50  A    between atoms: _115  and  _118
REMARK   51  A    between atoms: _118  and  _119
REMARK   52  A    between atoms: _122  and  _124
REMARK   53  A    between atoms: _124  and  _125
REMARK   54  A    between atoms: _124  and  _127
REMARK   55  A    between atoms: _127  and  _128
REMARK   56  A    between atoms: _131  and  _133
REMARK   57  A    between atoms: _133  and  _134
REMARK   58  A    between atoms: _136  and  _138
REMARK   59  A    between atoms: _138  and  _139
REMARK   60  A    between atoms: _142  and  _144
REMARK   61  A    between atoms: _144  and  _145
REMARK   62  A    between atoms: _144  and  _147
REMARK   63  A    between atoms: _147  and  _148
REMARK   64  A    between atoms: _150  and  _152
REMARK   65  A    between atoms: _152  and  _153
REMARK   66  A    between atoms: _152  and  _155
REMARK   67  A    between atoms: _155  and  _156
REMARK   68  A    between atoms: _156  and  _157
REMARK   69  A    between atoms: _162  and  _164
REMARK   70  A    between atoms: _164  and  _165
REMARK   71  A    between atoms: _164  and  _167
REMARK   72  A    between atoms: _167  and  _168
REMARK   73  A    between atoms: _171  and  _173
REMARK   74  A    between atoms: _173  and  _174
REMARK   75  A    between atoms: _173  and  _176
REMARK   76  A    between atoms: _176  and  _177
REMARK   77  A    between atoms: _180  and  _182
REMARK   78  A    between atoms: _182  and  _183
REMARK   79  A    between atoms: _182  and  _185
REMARK   80  A    between atoms: _185  and  _186
REMARK   81  A    between atoms: _189  and  _191
REMARK   82  A    between atoms: _191  and  _192
REMARK   83  A    between atoms: _191  and  _194
REMARK   84  A    between atoms: _194  and  _195
REMARK   85  A    between atoms: _198  and  _200
REMARK   86  A    between atoms: _200  and  _201
REMARK   87  A    between atoms: _200  and  _203
REMARK   88  A    between atoms: _203  and  _204
REMARK   89  A    between atoms: _209  and  _211
REMARK   90  A    between atoms: _211  and  _212
REMARK   91  A    between atoms: _211  and  _214
REMARK   92  A    between atoms: _214  and  _215
REMARK   93  A    between atoms: _225  and  _227
REMARK   94  A    between atoms: _227  and  _228
REMARK   95  A    between atoms: _227  and  _230
REMARK   96  A    between atoms: _230  and  _231
REMARK   97  A    between atoms: _231  and  _232
REMARK   98  A    between atoms: _232  and  _233
REMARK   99  A    between atoms: _233  and  _234
REMARK  100  A    between atoms: _238  and  _240
REMARK  101  A    between atoms: _240  and  _241
REMARK  102  A    between atoms: _240  and  _243
REMARK  103  A    between atoms: _243  and  _244
REMARK  104  A    between atoms: _247  and  _249
REMARK  105  A    between atoms: _249  and  _250
REMARK  106  A    between atoms: _249  and  _252
REMARK  107  A    between atoms: _252  and  _253
REMARK  108  A    between atoms: _253  and  _254
REMARK  109  A    between atoms: _254  and  _255
REMARK  110  A    between atoms: _264  and  _266
REMARK  111  A    between atoms: _266  and  _267
REMARK  112  A    between atoms: _266  and  _269
REMARK  113  A    between atoms: _269  and  _270
REMARK                            x       y       z     vdW  Elec       q    Type
REMARK                         _______ _______ _______ _____ _____    ______ ____
ROOT
ATOM      1  O   HOH     1       7.699  16.265  21.265  0.00  0.00    +0.000 OA
ENDROOT
TORSDOF 0
REMARK  Name = ../refined-set-2016/4p58/4p58_pocket.pdb
REMARK  113 active torsions:
REMARK  status: ('A' for Active; 'I' for Inactive)
REMARK    1  A    between atoms: _1  and  _3
REMARK    2  A    between atoms: _3  and  _4
REMARK    3  A    between atoms: _3  and  _6
REMARK    4  A    between atoms: _6  and  _7
REMARK    5  A    between atoms: _7  and  _8
REMARK    6  A    between atoms: _11  and  _13
REMARK    7  A    between atoms: _13  and  _14
REMARK    8  A    between atoms: _13  and  _16
REMARK    9  A    between atoms: _16  and  _17
REMARK   10  A    between atoms: _20  and  _22
REMARK   11  A    between atoms: _22  and  _23
REMARK   12  A    between atoms: _25  and  _27
REMARK   13  A    between atoms: _27  and  _28
REMARK   14  A    between atoms: _31  and  _33
REMARK   15  A    between atoms: _33  and  _34
REMARK   16  A    between atoms: _33  and  _36
REMARK   17  A    between atoms: _36  and  _37
REMARK   18  A    between atoms: _42  and  _43
REMARK   19  A    between atoms: _45  and  _47
REMARK   20  A    between atoms: _47  and  _48
REMARK   21  A    between atoms: _47  and  _50
REMARK   22  A    between atoms: _50  and  _51
REMARK   23  A    between atoms: _54  and  _56
REMARK   24  A    between atoms: _56  and  _57
REMARK   25  A    between atoms: _56  and  _59
REMARK   26  A    between atoms: _59  and  _60
REMARK   27  A    between atoms: _60  and  _61
REMARK   28  A    between atoms: _63  and  _65
REMARK   29  A    between atoms: _65  and  _66
REMARK   30  A    between atoms: _65  and  _68
REMARK   31  A    between atoms: _68  and  _69
REMARK   32  A    between atoms: _69  and  _70
REMARK   33  A    between atoms: _73  and  _75
REMARK   34  A    between atoms: _75  and  _76
REMARK   35  A    between atoms: _75  and  _78
REMARK   36  A    between atoms: _78  and  _79
REMARK   37  A    between atoms: _82  and  _84
REMARK   38  A    between atoms: _84  and  _85
REMARK   39  A    between atoms: _84  and  _87
REMARK   40  A    between atoms: _87  and  _88
REMARK   41  A    between atoms: _93  and  _95
REMARK   42  A    between atoms: _95  and  _96
REMARK   43  A    between atoms: _95  and  _98
REMARK   44  A    between atoms: _98  and  _99
REMARK   45  A    between atoms: _104  and  _105
REMARK   46  A    between atoms: _107  and  _109
REMARK   47  A    between atoms: _109  and  _110
REMARK   48  A    between atoms: _113  and  _115
REMARK   49  A    between atoms: _115  and  _116
REMARK   50  A    between atoms: _115  and  _118
REMARK   51  A    between atoms: _118  and  _119
REMARK   52  A    between atoms: _122  and  _124
REMARK   53  A    between atoms: _124  and  _125
REMARK   54  A    between atoms: _124  and  _127
REMARK   55  A    between atoms: _127  and  _128
REMARK   56  A    between atoms: _131  and  _133
REMARK   57  A    between atoms: _133  and  _134
REMARK   58  A    between atoms: _136  and  _138
REMARK   59  A    between atoms: _138  and  _139
REMARK   60  A    between atoms: _142  and  _144
REMARK   61  A    between atoms: _144  and  _145
REMARK   62  A    between atoms: _144  and  _147
REMARK   63  A    between atoms: _147  and  _148
REMARK   64  A    between atoms: _150  and  _152
REMARK   65  A    between atoms: _152  and  _153
REMARK   66  A    between atoms: _152  and  _155
REMARK   67  A    between atoms: _155  and  _156
REMARK   68  A    between atoms: _156  and  _157
REMARK   69  A    between atoms: _162  and  _164
REMARK   70  A    between atoms: _164  and  _165
REMARK   71  A    between atoms: _164  and  _167
REMARK   72  A    between atoms: _167  and  _168
REMARK   73  A    between atoms: _171  and  _173
REMARK   74  A    between atoms: _173  and  _174
REMARK   75  A    between atoms: _173  and  _176
REMARK   76  A    between atoms: _176  and  _177
REMARK   77  A    between atoms: _180  and  _182
REMARK   78  A    between atoms: _182  and  _183
REMARK   79  A    between atoms: _182  and  _185
REMARK   80  A    between atoms: _185  and  _186
REMARK   81  A    between atoms: _189  and  _191
REMARK   82  A    between atoms: _191  and  _192
REMARK   83  A    between atoms: _191  and  _194
REMARK   84  A    between atoms: _194  and  _195
REMARK   85  A    between atoms: _198  and  _200
REMARK   86  A    between atoms: _200  and  _201
REMARK   87  A    between atoms: _200  and  _203
REMARK   88  A    between atoms: _203  and  _204
REMARK   89  A    between atoms: _209  and  _211
REMARK   90  A    between atoms: _211  and  _212
REMARK   91  A    between atoms: _211  and  _214
REMARK   92  A    between atoms: _214  and  _215
REMARK   93  A    between atoms: _225  and  _227
REMARK   94  A    between atoms: _227  and  _228
REMARK   95  A    between atoms: _227  and  _230
REMARK   96  A    between atoms: _230  and  _231
REMARK   97  A    between atoms: _231  and  _232
REMARK   98  A    between atoms: _232  and  _233
REMARK   99  A    between atoms: _233  and  _234
REMARK  100  A    between atoms: _238  and  _240
REMARK  101  A    between atoms: _240  and  _241
REMARK  102  A    between atoms: _240  and  _243
REMARK  103  A    between atoms: _243  and  _244
REMARK  104  A    between atoms: _247  and  _249
REMARK  105  A    between atoms: _249  and  _250
REMARK  106  A    between atoms: _249  and  _252
REMARK  107  A    between atoms: _252  and  _253
REMARK  108  A    between atoms: _253  and  _254
REMARK  109  A    between atoms: _254  and  _255
REMARK  110  A    between atoms: _264  and  _266
REMARK  111  A    between atoms: _266  and  _267
REMARK  112  A    between atoms: _266  and  _269
REMARK  113  A    between atoms: _269  and  _270
REMARK                            x       y       z     vdW  Elec       q    Type
REMARK                         _______ _______ _______ _____ _____    ______ ____
ROOT
ATOM      1  O   HOH     1      20.378  25.822  19.229  0.00  0.00    +0.000 OA
ENDROOT
TORSDOF 0
REMARK  Name = ../refined-set-2016/4p58/4p58_pocket.pdb
REMARK  113 active torsions:
REMARK  status: ('A' for Active; 'I' for Inactive)
REMARK    1  A    between atoms: _1  and  _3
REMARK    2  A    between atoms: _3  and  _4
REMARK    3  A    between atoms: _3  and  _6
REMARK    4  A    between atoms: _6  and  _7
REMARK    5  A    between atoms: _7  and  _8
REMARK    6  A    between atoms: _11  and  _13
REMARK    7  A    between atoms: _13  and  _14
REMARK    8  A    between atoms: _13  and  _16
REMARK    9  A    between atoms: _16  and  _17
REMARK   10  A    between atoms: _20  and  _22
REMARK   11  A    between atoms: _22  and  _23
REMARK   12  A    between atoms: _25  and  _27
REMARK   13  A    between atoms: _27  and  _28
REMARK   14  A    between atoms: _31  and  _33
REMARK   15  A    between atoms: _33  and  _34
REMARK   16  A    between atoms: _33  and  _36
REMARK   17  A    between atoms: _36  and  _37
REMARK   18  A    between atoms: _42  and  _43
REMARK   19  A    between atoms: _45  and  _47
REMARK   20  A    between atoms: _47  and  _48
REMARK   21  A    between atoms: _47  and  _50
REMARK   22  A    between atoms: _50  and  _51
REMARK   23  A    between atoms: _54  and  _56
REMARK   24  A    between atoms: _56  and  _57
REMARK   25  A    between atoms: _56  and  _59
REMARK   26  A    between atoms: _59  and  _60
REMARK   27  A    between atoms: _60  and  _61
REMARK   28  A    between atoms: _63  and  _65
REMARK   29  A    between atoms: _65  and  _66
REMARK   30  A    between atoms: _65  and  _68
REMARK   31  A    between atoms: _68  and  _69
REMARK   32  A    between atoms: _69  and  _70
REMARK   33  A    between atoms: _73  and  _75
REMARK   34  A    between atoms: _75  and  _76
REMARK   35  A    between atoms: _75  and  _78
REMARK   36  A    between atoms: _78  and  _79
REMARK   37  A    between atoms: _82  and  _84
REMARK   38  A    between atoms: _84  and  _85
REMARK   39  A    between atoms: _84  and  _87
REMARK   40  A    between atoms: _87  and  _88
REMARK   41  A    between atoms: _93  and  _95
REMARK   42  A    between atoms: _95  and  _96
REMARK   43  A    between atoms: _95  and  _98
REMARK   44  A    between atoms: _98  and  _99
REMARK   45  A    between atoms: _104  and  _105
REMARK   46  A    between atoms: _107  and  _109
REMARK   47  A    between atoms: _109  and  _110
REMARK   48  A    between atoms: _113  and  _115
REMARK   49  A    between atoms: _115  and  _116
REMARK   50  A    between atoms: _115  and  _118
REMARK   51  A    between atoms: _118  and  _119
REMARK   52  A    between atoms: _122  and  _124
REMARK   53  A    between atoms: _124  and  _125
REMARK   54  A    between atoms: _124  and  _127
REMARK   55  A    between atoms: _127  and  _128
REMARK   56  A    between atoms: _131  and  _133
REMARK   57  A    between atoms: _133  and  _134
REMARK   58  A    between atoms: _136  and  _138
REMARK   59  A    between atoms: _138  and  _139
REMARK   60  A    between atoms: _142  and  _144
REMARK   61  A    between atoms: _144  and  _145
REMARK   62  A    between atoms: _144  and  _147
REMARK   63  A    between atoms: _147  and  _148
REMARK   64  A    between atoms: _150  and  _152
REMARK   65  A    between atoms: _152  and  _153
REMARK   66  A    between atoms: _152  and  _155
REMARK   67  A    between atoms: _155  and  _156
REMARK   68  A    between atoms: _156  and  _157
REMARK   69  A    between atoms: _162  and  _164
REMARK   70  A    between atoms: _164  and  _165
REMARK   71  A    between atoms: _164  and  _167
REMARK   72  A    between atoms: _167  and  _168
REMARK   73  A    between atoms: _171  and  _173
REMARK   74  A    between atoms: _173  and  _174
REMARK   75  A    between atoms: _173  and  _176
REMARK   76  A    between atoms: _176  and  _177
REMARK   77  A    between atoms: _180  and  _182
REMARK   78  A    between atoms: _182  and  _183
REMARK   79  A    between atoms: _182  and  _185
REMARK   80  A    between atoms: _185  and  _186
REMARK   81  A    between atoms: _189  and  _191
REMARK   82  A    between atoms: _191  and  _192
REMARK   83  A    between atoms: _191  and  _194
REMARK   84  A    between atoms: _194  and  _195
REMARK   85  A    between atoms: _198  and  _200
REMARK   86  A    between atoms: _200  and  _201
REMARK   87  A    between atoms: _200  and  _203
REMARK   88  A    between atoms: _203  and  _204
REMARK   89  A    between atoms: _209  and  _211
REMARK   90  A    between atoms: _211  and  _212
REMARK   91  A    between atoms: _211  and  _214
REMARK   92  A    between atoms: _214  and  _215
REMARK   93  A    between atoms: _225  and  _227
REMARK   94  A    between atoms: _227  and  _228
REMARK   95  A    between atoms: _227  and  _230
REMARK   96  A    between atoms: _230  and  _231
REMARK   97  A    between atoms: _231  and  _232
REMARK   98  A    between atoms: _232  and  _233
REMARK   99  A    between atoms: _233  and  _234
REMARK  100  A    between atoms: _238  and  _240
REMARK  101  A    between atoms: _240  and  _241
REMARK  102  A    between atoms: _240  and  _243
REMARK  103  A    between atoms: _243  and  _244
REMARK  104  A    between atoms: _247  and  _249
REMARK  105  A    between atoms: _249  and  _250
REMARK  106  A    between atoms: _249  and  _252
REMARK  107  A    between atoms: _252  and  _253
REMARK  108  A    between atoms: _253  and  _254
REMARK  109  A    between atoms: _254  and  _255
REMARK  110  A    between atoms: _264  and  _266
REMARK  111  A    between atoms: _266  and  _267
REMARK  112  A    between atoms: _266  and  _269
REMARK  113  A    between atoms: _269  and  _270
REMARK                            x       y       z     vdW  Elec       q    Type
REMARK                         _______ _______ _______ _____ _____    ______ ____
ROOT
ATOM      1  O   HOH     1       8.529  15.151  13.340  0.00  0.00    +0.000 OA
ENDROOT
TORSDOF 0
REMARK  Name = ../refined-set-2016/4p58/4p58_pocket.pdb
REMARK  113 active torsions:
REMARK  status: ('A' for Active; 'I' for Inactive)
REMARK    1  A    between atoms: _1  and  _3
REMARK    2  A    between atoms: _3  and  _4
REMARK    3  A    between atoms: _3  and  _6
REMARK    4  A    between atoms: _6  and  _7
REMARK    5  A    between atoms: _7  and  _8
REMARK    6  A    between atoms: _11  and  _13
REMARK    7  A    between atoms: _13  and  _14
REMARK    8  A    between atoms: _13  and  _16
REMARK    9  A    between atoms: _16  and  _17
REMARK   10  A    between atoms: _20  and  _22
REMARK   11  A    between atoms: _22  and  _23
REMARK   12  A    between atoms: _25  and  _27
REMARK   13  A    between atoms: _27  and  _28
REMARK   14  A    between atoms: _31  and  _33
REMARK   15  A    between atoms: _33  and  _34
REMARK   16  A    between atoms: _33  and  _36
REMARK   17  A    between atoms: _36  and  _37
REMARK   18  A    between atoms: _42  and  _43
REMARK   19  A    between atoms: _45  and  _47
REMARK   20  A    between atoms: _47  and  _48
REMARK   21  A    between atoms: _47  and  _50
REMARK   22  A    between atoms: _50  and  _51
REMARK   23  A    between atoms: _54  and  _56
REMARK   24  A    between atoms: _56  and  _57
REMARK   25  A    between atoms: _56  and  _59
REMARK   26  A    between atoms: _59  and  _60
REMARK   27  A    between atoms: _60  and  _61
REMARK   28  A    between atoms: _63  and  _65
REMARK   29  A    between atoms: _65  and  _66
REMARK   30  A    between atoms: _65  and  _68
REMARK   31  A    between atoms: _68  and  _69
REMARK   32  A    between atoms: _69  and  _70
REMARK   33  A    between atoms: _73  and  _75
REMARK   34  A    between atoms: _75  and  _76
REMARK   35  A    between atoms: _75  and  _78
REMARK   36  A    between atoms: _78  and  _79
REMARK   37  A    between atoms: _82  and  _84
REMARK   38  A    between atoms: _84  and  _85
REMARK   39  A    between atoms: _84  and  _87
REMARK   40  A    between atoms: _87  and  _88
REMARK   41  A    between atoms: _93  and  _95
REMARK   42  A    between atoms: _95  and  _96
REMARK   43  A    between atoms: _95  and  _98
REMARK   44  A    between atoms: _98  and  _99
REMARK   45  A    between atoms: _104  and  _105
REMARK   46  A    between atoms: _107  and  _109
REMARK   47  A    between atoms: _109  and  _110
REMARK   48  A    between atoms: _113  and  _115
REMARK   49  A    between atoms: _115  and  _116
REMARK   50  A    between atoms: _115  and  _118
REMARK   51  A    between atoms: _118  and  _119
REMARK   52  A    between atoms: _122  and  _124
REMARK   53  A    between atoms: _124  and  _125
REMARK   54  A    between atoms: _124  and  _127
REMARK   55  A    between atoms: _127  and  _128
REMARK   56  A    between atoms: _131  and  _133
REMARK   57  A    between atoms: _133  and  _134
REMARK   58  A    between atoms: _136  and  _138
REMARK   59  A    between atoms: _138  and  _139
REMARK   60  A    between atoms: _142  and  _144
REMARK   61  A    between atoms: _144  and  _145
REMARK   62  A    between atoms: _144  and  _147
REMARK   63  A    between atoms: _147  and  _148
REMARK   64  A    between atoms: _150  and  _152
REMARK   65  A    between atoms: _152  and  _153
REMARK   66  A    between atoms: _152  and  _155
REMARK   67  A    between atoms: _155  and  _156
REMARK   68  A    between atoms: _156  and  _157
REMARK   69  A    between atoms: _162  and  _164
REMARK   70  A    between atoms: _164  and  _165
REMARK   71  A    between atoms: _164  and  _167
REMARK   72  A    between atoms: _167  and  _168
REMARK   73  A    between atoms: _171  and  _173
REMARK   74  A    between atoms: _173  and  _174
REMARK   75  A    between atoms: _173  and  _176
REMARK   76  A    between atoms: _176  and  _177
REMARK   77  A    between atoms: _180  and  _182
REMARK   78  A    between atoms: _182  and  _183
REMARK   79  A    between atoms: _182  and  _185
REMARK   80  A    between atoms: _185  and  _186
REMARK   81  A    between atoms: _189  and  _191
REMARK   82  A    between atoms: _191  and  _192
REMARK   83  A    between atoms: _191  and  _194
REMARK   84  A    between atoms: _194  and  _195
REMARK   85  A    between atoms: _198  and  _200
REMARK   86  A    between atoms: _200  and  _201
REMARK   87  A    between atoms: _200  and  _203
REMARK   88  A    between atoms: _203  and  _204
REMARK   89  A    between atoms: _209  and  _211
REMARK   90  A    between atoms: _211  and  _212
REMARK   91  A    between atoms: _211  and  _214
REMARK   92  A    between atoms: _214  and  _215
REMARK   93  A    between atoms: _225  and  _227
REMARK   94  A    between atoms: _227  and  _228
REMARK   95  A    between atoms: _227  and  _230
REMARK   96  A    between atoms: _230  and  _231
REMARK   97  A    between atoms: _231  and  _232
REMARK   98  A    between atoms: _232  and  _233
REMARK   99  A    between atoms: _233  and  _234
REMARK  100  A    between atoms: _238  and  _240
REMARK  101  A    between atoms: _240  and  _241
REMARK  102  A    between atoms: _240  and  _243
REMARK  103  A    between atoms: _243  and  _244
REMARK  104  A    between atoms: _247  and  _249
REMARK  105  A    between atoms: _249  and  _250
REMARK  106  A    between atoms: _249  and  _252
REMARK  107  A    between atoms: _252  and  _253
REMARK  108  A    between atoms: _253  and  _254
REMARK  109  A    between atoms: _254  and  _255
REMARK  110  A    between atoms: _264  and  _266
REMARK  111  A    between atoms: _266  and  _267
REMARK  112  A    between atoms: _266  and  _269
REMARK  113  A    between atoms: _269  and  _270
REMARK                            x       y       z     vdW  Elec       q    Type
REMARK                         _______ _______ _______ _____ _____    ______ ____
ROOT
ATOM      1  O   HOH     1       5.002  17.997  17.598  0.00  0.00    +0.000 OA
ENDROOT
TORSDOF 0
