REMARK  Name = ../refined-set-2016/1ebw/1ebw_pocket.pdb
REMARK  240 active torsions:
REMARK  status: ('A' for Active; 'I' for Inactive)
REMARK    1  A    between atoms: _1  and  _3
REMARK    2  A    between atoms: _3  and  _4
REMARK    3  A    between atoms: _3  and  _6
REMARK    4  A    between atoms: _6  and  _7
REMARK    5  A    between atoms: _7  and  _8
REMARK    6  A    between atoms: _8  and  _9
REMARK    7  A    between atoms: _18  and  _20
REMARK    8  A    between atoms: _20  and  _21
REMARK    9  A    between atoms: _20  and  _23
REMARK   10  A    between atoms: _23  and  _24
REMARK   11  A    between atoms: _27  and  _29
REMARK   12  A    between atoms: _29  and  _30
REMARK   13  A    between atoms: _29  and  _32
REMARK   14  A    between atoms: _32  and  _33
REMARK   15  A    between atoms: _36  and  _38
REMARK   16  A    between atoms: _38  and  _39
REMARK   17  A    between atoms: _38  and  _41
REMARK   18  A    between atoms: _41  and  _42
REMARK   19  A    between atoms: _45  and  _47
REMARK   20  A    between atoms: _47  and  _48
REMARK   21  A    between atoms: _47  and  _50
REMARK   22  A    between atoms: _50  and  _51
REMARK   23  A    between atoms: _54  and  _56
REMARK   24  A    between atoms: _56  and  _57
REMARK   25  A    between atoms: _56  and  _59
REMARK   26  A    between atoms: _59  and  _60
REMARK   27  A    between atoms: _63  and  _65
REMARK   28  A    between atoms: _65  and  _66
REMARK   29  A    between atoms: _68  and  _70
REMARK   30  A    between atoms: _70  and  _71
REMARK   31  A    between atoms: _74  and  _76
REMARK   32  A    between atoms: _76  and  _77
REMARK   33  A    between atoms: _76  and  _79
REMARK   34  A    between atoms: _79  and  _80
REMARK   35  A    between atoms: _83  and  _85
REMARK   36  A    between atoms: _85  and  _86
REMARK   37  A    between atoms: _85  and  _88
REMARK   38  A    between atoms: _88  and  _89
REMARK   39  A    between atoms: _92  and  _94
REMARK   40  A    between atoms: _94  and  _95
REMARK   41  A    between atoms: _94  and  _97
REMARK   42  A    between atoms: _97  and  _98
REMARK   43  A    between atoms: _101  and  _103
REMARK   44  A    between atoms: _103  and  _104
REMARK   45  A    between atoms: _103  and  _106
REMARK   46  A    between atoms: _109  and  _111
REMARK   47  A    between atoms: _111  and  _112
REMARK   48  A    between atoms: _111  and  _114
REMARK   49  A    between atoms: _114  and  _115
REMARK   50  A    between atoms: _118  and  _120
REMARK   51  A    between atoms: _120  and  _121
REMARK   52  A    between atoms: _120  and  _123
REMARK   53  A    between atoms: _123  and  _124
REMARK   54  A    between atoms: _124  and  _125
REMARK   55  A    between atoms: _125  and  _126
REMARK   56  A    between atoms: _126  and  _127
REMARK   57  A    between atoms: _131  and  _133
REMARK   58  A    between atoms: _133  and  _134
REMARK   59  A    between atoms: _133  and  _136
REMARK   60  A    between atoms: _136  and  _137
REMARK   61  A    between atoms: _137  and  _138
REMARK   62  A    between atoms: _140  and  _142
REMARK   63  A    between atoms: _142  and  _143
REMARK   64  A    between atoms: _142  and  _145
REMARK   65  A    between atoms: _145  and  _146
REMARK   66  A    between atoms: _149  and  _151
REMARK   67  A    between atoms: _151  and  _152
REMARK   68  A    between atoms: _154  and  _156
REMARK   69  A    between atoms: _156  and  _157
REMARK   70  A    between atoms: _159  and  _161
REMARK   71  A    between atoms: _161  and  _162
REMARK   72  A    between atoms: _161  and  _164
REMARK   73  A    between atoms: _164  and  _165
REMARK   74  A    between atoms: _168  and  _170
REMARK   75  A    between atoms: _170  and  _171
REMARK   76  A    between atoms: _173  and  _175
REMARK   77  A    between atoms: _175  and  _176
REMARK   78  A    between atoms: _178  and  _180
REMARK   79  A    between atoms: _180  and  _181
REMARK   80  A    between atoms: _180  and  _183
REMARK   81  A    between atoms: _183  and  _184
REMARK   82  A    between atoms: _190  and  _192
REMARK   83  A    between atoms: _192  and  _193
REMARK   84  A    between atoms: _192  and  _195
REMARK   85  A    between atoms: _195  and  _196
REMARK   86  A    between atoms: _199  and  _201
REMARK   87  A    between atoms: _201  and  _202
REMARK   88  A    between atoms: _201  and  _204
REMARK   89  A    between atoms: _207  and  _209
REMARK   90  A    between atoms: _209  and  _210
REMARK   91  A    between atoms: _209  and  _212
REMARK   92  A    between atoms: _212  and  _213
REMARK   93  A    between atoms: _216  and  _218
REMARK   94  A    between atoms: _218  and  _219
REMARK   95  A    between atoms: _218  and  _221
REMARK   96  A    between atoms: _221  and  _222
REMARK   97  A    between atoms: _226  and  _227
REMARK   98  A    between atoms: _232  and  _234
REMARK   99  A    between atoms: _234  and  _235
REMARK  100  A    between atoms: _234  and  _237
REMARK  101  A    between atoms: _240  and  _242
REMARK  102  A    between atoms: _242  and  _243
REMARK  103  A    between atoms: _242  and  _245
REMARK  104  A    between atoms: _245  and  _246
REMARK  105  A    between atoms: _251  and  _253
REMARK  106  A    between atoms: _253  and  _254
REMARK  107  A    between atoms: _253  and  _256
REMARK  108  A    between atoms: _256  and  _257
REMARK  109  A    between atoms: _260  and  _262
REMARK  110  A    between atoms: _262  and  _263
REMARK  111  A    between atoms: _262  and  _265
REMARK  112  A    between atoms: _265  and  _266
REMARK  113  A    between atoms: _269  and  _271
REMARK  114  A    between atoms: _271  and  _272
REMARK  115  A    between atoms: _274  and  _276
REMARK  116  A    between atoms: _276  and  _277
REMARK  117  A    between atoms: _276  and  _279
REMARK  118  A    between atoms: _279  and  _280
REMARK  119  A    between atoms: _280  and  _281
REMARK  120  A    between atoms: _281  and  _282
REMARK  121  A    between atoms: _291  and  _293
REMARK  122  A    between atoms: _293  and  _294
REMARK  123  A    between atoms: _293  and  _296
REMARK  124  A    between atoms: _296  and  _297
REMARK  125  A    between atoms: _297  and  _298
REMARK  126  A    between atoms: _298  and  _299
REMARK  127  A    between atoms: _308  and  _310
REMARK  128  A    between atoms: _310  and  _311
REMARK  129  A    between atoms: _310  and  _313
REMARK  130  A    between atoms: _313  and  _314
REMARK  131  A    between atoms: _317  and  _319
REMARK  132  A    between atoms: _319  and  _320
REMARK  133  A    between atoms: _319  and  _322
REMARK  134  A    between atoms: _322  and  _323
REMARK  135  A    between atoms: _326  and  _328
REMARK  136  A    between atoms: _328  and  _329
REMARK  137  A    between atoms: _328  and  _331
REMARK  138  A    between atoms: _331  and  _332
REMARK  139  A    between atoms: _335  and  _337
REMARK  140  A    between atoms: _337  and  _338
REMARK  141  A    between atoms: _337  and  _340
REMARK  142  A    between atoms: _340  and  _341
REMARK  143  A    between atoms: _344  and  _346
REMARK  144  A    between atoms: _346  and  _347
REMARK  145  A    between atoms: _346  and  _349
REMARK  146  A    between atoms: _349  and  _350
REMARK  147  A    between atoms: _353  and  _355
REMARK  148  A    between atoms: _355  and  _356
REMARK  149  A    between atoms: _358  and  _360
REMARK  150  A    between atoms: _360  and  _361
REMARK  151  A    between atoms: _364  and  _366
REMARK  152  A    between atoms: _366  and  _367
REMARK  153  A    between atoms: _366  and  _369
REMARK  154  A    between atoms: _369  and  _370
REMARK  155  A    between atoms: _373  and  _375
REMARK  156  A    between atoms: _375  and  _376
REMARK  157  A    between atoms: _375  and  _378
REMARK  158  A    between atoms: _378  and  _379
REMARK  159  A    between atoms: _382  and  _384
REMARK  160  A    between atoms: _384  and  _385
REMARK  161  A    between atoms: _384  and  _387
REMARK  162  A    between atoms: _387  and  _388
REMARK  163  A    between atoms: _391  and  _393
REMARK  164  A    between atoms: _393  and  _394
REMARK  165  A    between atoms: _393  and  _396
REMARK  166  A    between atoms: _399  and  _401
REMARK  167  A    between atoms: _401  and  _402
REMARK  168  A    between atoms: _401  and  _404
REMARK  169  A    between atoms: _404  and  _405
REMARK  170  A    between atoms: _408  and  _410
REMARK  171  A    between atoms: _410  and  _411
REMARK  172  A    between atoms: _410  and  _413
REMARK  173  A    between atoms: _413  and  _414
REMARK  174  A    between atoms: _414  and  _415
REMARK  175  A    between atoms: _415  and  _416
REMARK  176  A    between atoms: _416  and  _417
REMARK  177  A    between atoms: _421  and  _423
REMARK  178  A    between atoms: _423  and  _424
REMARK  179  A    between atoms: _423  and  _426
REMARK  180  A    between atoms: _426  and  _427
REMARK  181  A    between atoms: _427  and  _428
REMARK  182  A    between atoms: _430  and  _432
REMARK  183  A    between atoms: _432  and  _433
REMARK  184  A    between atoms: _432  and  _435
REMARK  185  A    between atoms: _435  and  _436
REMARK  186  A    between atoms: _439  and  _441
REMARK  187  A    between atoms: _441  and  _442
REMARK  188  A    between atoms: _444  and  _446
REMARK  189  A    between atoms: _446  and  _447
REMARK  190  A    between atoms: _449  and  _451
REMARK  191  A    between atoms: _451  and  _452
REMARK  192  A    between atoms: _451  and  _454
REMARK  193  A    between atoms: _454  and  _455
REMARK  194  A    between atoms: _458  and  _460
REMARK  195  A    between atoms: _460  and  _461
REMARK  196  A    between atoms: _463  and  _465
REMARK  197  A    between atoms: _465  and  _466
REMARK  198  A    between atoms: _468  and  _470
REMARK  199  A    between atoms: _470  and  _471
REMARK  200  A    between atoms: _470  and  _473
REMARK  201  A    between atoms: _473  and  _474
REMARK  202  A    between atoms: _480  and  _482
REMARK  203  A    between atoms: _482  and  _483
REMARK  204  A    between atoms: _482  and  _485
REMARK  205  A    between atoms: _485  and  _486
REMARK  206  A    between atoms: _489  and  _491
REMARK  207  A    between atoms: _491  and  _492
REMARK  208  A    between atoms: _491  and  _494
REMARK  209  A    between atoms: _497  and  _499
REMARK  210  A    between atoms: _499  and  _500
REMARK  211  A    between atoms: _499  and  _502
REMARK  212  A    between atoms: _502  and  _503
REMARK  213  A    between atoms: _506  and  _508
REMARK  214  A    between atoms: _508  and  _509
REMARK  215  A    between atoms: _508  and  _511
REMARK  216  A    between atoms: _511  and  _512
REMARK  217  A    between atoms: _516  and  _517
REMARK  218  A    between atoms: _522  and  _524
REMARK  219  A    between atoms: _524  and  _525
REMARK  220  A    between atoms: _524  and  _527
REMARK  221  A    between atoms: _530  and  _532
REMARK  222  A    between atoms: _532  and  _533
REMARK  223  A    between atoms: _532  and  _535
REMARK  224  A    between atoms: _535  and  _536
REMARK  225  A    between atoms: _541  and  _543
REMARK  226  A    between atoms: _543  and  _544
REMARK  227  A    between atoms: _543  and  _546
REMARK  228  A    between atoms: _546  and  _547
REMARK  229  A    between atoms: _550  and  _552
REMARK  230  A    between atoms: _552  and  _553
REMARK  231  A    between atoms: _552  and  _555
REMARK  232  A    between atoms: _555  and  _556
REMARK  233  A    between atoms: _559  and  _561
REMARK  234  A    between atoms: _561  and  _562
REMARK  235  A    between atoms: _564  and  _566
REMARK  236  A    between atoms: _566  and  _567
REMARK  237  A    between atoms: _566  and  _569
REMARK  238  A    between atoms: _569  and  _570
REMARK  239  A    between atoms: _570  and  _571
REMARK  240  A    between atoms: _571  and  _572
REMARK                            x       y       z     vdW  Elec       q    Type
REMARK                         _______ _______ _______ _____ _____    ______ ____
ROOT
ATOM      1  NE  ARG A   1      23.591  20.586   7.875  0.00  0.00    -0.265 N 
ATOM      2  CZ  ARG A   1      23.105  19.683   8.719  0.00  0.00    +0.342 C 
ATOM      3  NH2 ARG A   1      22.973  19.983  10.006  0.00  0.00    -0.292 N 
ATOM      4 HH21 ARG A   1      22.593  19.277  10.668  0.00  0.00    +0.255 HD
ATOM      5 HH22 ARG A   1      23.250  20.924  10.352  0.00  0.00    +0.255 HD
ATOM      6  NH1 ARG A   1      22.758  18.481   8.279  0.00  0.00    -0.292 N 
ATOM      7 HH11 ARG A   1      22.378  17.775   8.941  0.00  0.00    +0.255 HD
ATOM      8 HH12 ARG A   1      22.866  18.245   7.272  0.00  0.00    +0.255 HD
ATOM      9  HE  ARG A   1      23.681  20.319   6.874  0.00  0.00    +0.259 HD
ENDROOT
BRANCH   1  10
ATOM     10  CD  ARG A   1      24.006  21.926   8.263  0.00  0.00    +0.174 C 
BRANCH  10  11
ATOM     11  CG  ARG A   1      24.655  22.651   7.106  0.00  0.00    +0.045 C 
BRANCH  11  12
ATOM     12  CB  ARG A   1      25.107  24.027   7.515  0.00  0.00    +0.029 C 
BRANCH  12  13
ATOM     13  CA  ARG A   1      25.759  24.819   6.385  0.00  0.00    +0.133 C 
BRANCH  13  14
ATOM     14  N   ARG A   1      27.006  24.185   5.969  0.00  0.00    -0.239 NA
ATOM     15  H   ARG A   1      27.321  23.314   6.442  0.00  0.00    +0.142 HD
ENDBRANCH  13  14
BRANCH  13  16
ATOM     16  C   ARG A   1      26.077  26.229   6.867  0.00  0.00    +0.224 C 
ATOM     17  O   ARG A   1      27.043  26.437   7.604  0.00  0.00    -0.287 OA
ENDBRANCH  13  16
ENDBRANCH  12  13
ENDBRANCH  11  12
ENDBRANCH  10  11
ENDBRANCH   1  10
TORSDOF 6
REMARK  Name = ../refined-set-2016/1ebw/1ebw_pocket.pdb
REMARK  240 active torsions:
REMARK  status: ('A' for Active; 'I' for Inactive)
REMARK    1  A    between atoms: _1  and  _3
REMARK    2  A    between atoms: _3  and  _4
REMARK    3  A    between atoms: _3  and  _6
REMARK    4  A    between atoms: _6  and  _7
REMARK    5  A    between atoms: _7  and  _8
REMARK    6  A    between atoms: _8  and  _9
REMARK    7  A    between atoms: _18  and  _20
REMARK    8  A    between atoms: _20  and  _21
REMARK    9  A    between atoms: _20  and  _23
REMARK   10  A    between atoms: _23  and  _24
REMARK   11  A    between atoms: _27  and  _29
REMARK   12  A    between atoms: _29  and  _30
REMARK   13  A    between atoms: _29  and  _32
REMARK   14  A    between atoms: _32  and  _33
REMARK   15  A    between atoms: _36  and  _38
REMARK   16  A    between atoms: _38  and  _39
REMARK   17  A    between atoms: _38  and  _41
REMARK   18  A    between atoms: _41  and  _42
REMARK   19  A    between atoms: _45  and  _47
REMARK   20  A    between atoms: _47  and  _48
REMARK   21  A    between atoms: _47  and  _50
REMARK   22  A    between atoms: _50  and  _51
REMARK   23  A    between atoms: _54  and  _56
REMARK   24  A    between atoms: _56  and  _57
REMARK   25  A    between atoms: _56  and  _59
REMARK   26  A    between atoms: _59  and  _60
REMARK   27  A    between atoms: _63  and  _65
REMARK   28  A    between atoms: _65  and  _66
REMARK   29  A    between atoms: _68  and  _70
REMARK   30  A    between atoms: _70  and  _71
REMARK   31  A    between atoms: _74  and  _76
REMARK   32  A    between atoms: _76  and  _77
REMARK   33  A    between atoms: _76  and  _79
REMARK   34  A    between atoms: _79  and  _80
REMARK   35  A    between atoms: _83  and  _85
REMARK   36  A    between atoms: _85  and  _86
REMARK   37  A    between atoms: _85  and  _88
REMARK   38  A    between atoms: _88  and  _89
REMARK   39  A    between atoms: _92  and  _94
REMARK   40  A    between atoms: _94  and  _95
REMARK   41  A    between atoms: _94  and  _97
REMARK   42  A    between atoms: _97  and  _98
REMARK   43  A    between atoms: _101  and  _103
REMARK   44  A    between atoms: _103  and  _104
REMARK   45  A    between atoms: _103  and  _106
REMARK   46  A    between atoms: _109  and  _111
REMARK   47  A    between atoms: _111  and  _112
REMARK   48  A    between atoms: _111  and  _114
REMARK   49  A    between atoms: _114  and  _115
REMARK   50  A    between atoms: _118  and  _120
REMARK   51  A    between atoms: _120  and  _121
REMARK   52  A    between atoms: _120  and  _123
REMARK   53  A    between atoms: _123  and  _124
REMARK   54  A    between atoms: _124  and  _125
REMARK   55  A    between atoms: _125  and  _126
REMARK   56  A    between atoms: _126  and  _127
REMARK   57  A    between atoms: _131  and  _133
REMARK   58  A    between atoms: _133  and  _134
REMARK   59  A    between atoms: _133  and  _136
REMARK   60  A    between atoms: _136  and  _137
REMARK   61  A    between atoms: _137  and  _138
REMARK   62  A    between atoms: _140  and  _142
REMARK   63  A    between atoms: _142  and  _143
REMARK   64  A    between atoms: _142  and  _145
REMARK   65  A    between atoms: _145  and  _146
REMARK   66  A    between atoms: _149  and  _151
REMARK   67  A    between atoms: _151  and  _152
REMARK   68  A    between atoms: _154  and  _156
REMARK   69  A    between atoms: _156  and  _157
REMARK   70  A    between atoms: _159  and  _161
REMARK   71  A    between atoms: _161  and  _162
REMARK   72  A    between atoms: _161  and  _164
REMARK   73  A    between atoms: _164  and  _165
REMARK   74  A    between atoms: _168  and  _170
REMARK   75  A    between atoms: _170  and  _171
REMARK   76  A    between atoms: _173  and  _175
REMARK   77  A    between atoms: _175  and  _176
REMARK   78  A    between atoms: _178  and  _180
REMARK   79  A    between atoms: _180  and  _181
REMARK   80  A    between atoms: _180  and  _183
REMARK   81  A    between atoms: _183  and  _184
REMARK   82  A    between atoms: _190  and  _192
REMARK   83  A    between atoms: _192  and  _193
REMARK   84  A    between atoms: _192  and  _195
REMARK   85  A    between atoms: _195  and  _196
REMARK   86  A    between atoms: _199  and  _201
REMARK   87  A    between atoms: _201  and  _202
REMARK   88  A    between atoms: _201  and  _204
REMARK   89  A    between atoms: _207  and  _209
REMARK   90  A    between atoms: _209  and  _210
REMARK   91  A    between atoms: _209  and  _212
REMARK   92  A    between atoms: _212  and  _213
REMARK   93  A    between atoms: _216  and  _218
REMARK   94  A    between atoms: _218  and  _219
REMARK   95  A    between atoms: _218  and  _221
REMARK   96  A    between atoms: _221  and  _222
REMARK   97  A    between atoms: _226  and  _227
REMARK   98  A    between atoms: _232  and  _234
REMARK   99  A    between atoms: _234  and  _235
REMARK  100  A    between atoms: _234  and  _237
REMARK  101  A    between atoms: _240  and  _242
REMARK  102  A    between atoms: _242  and  _243
REMARK  103  A    between atoms: _242  and  _245
REMARK  104  A    between atoms: _245  and  _246
REMARK  105  A    between atoms: _251  and  _253
REMARK  106  A    between atoms: _253  and  _254
REMARK  107  A    between atoms: _253  and  _256
REMARK  108  A    between atoms: _256  and  _257
REMARK  109  A    between atoms: _260  and  _262
REMARK  110  A    between atoms: _262  and  _263
REMARK  111  A    between atoms: _262  and  _265
REMARK  112  A    between atoms: _265  and  _266
REMARK  113  A    between atoms: _269  and  _271
REMARK  114  A    between atoms: _271  and  _272
REMARK  115  A    between atoms: _274  and  _276
REMARK  116  A    between atoms: _276  and  _277
REMARK  117  A    between atoms: _276  and  _279
REMARK  118  A    between atoms: _279  and  _280
REMARK  119  A    between atoms: _280  and  _281
REMARK  120  A    between atoms: _281  and  _282
REMARK  121  A    between atoms: _291  and  _293
REMARK  122  A    between atoms: _293  and  _294
REMARK  123  A    between atoms: _293  and  _296
REMARK  124  A    between atoms: _296  and  _297
REMARK  125  A    between atoms: _297  and  _298
REMARK  126  A    between atoms: _298  and  _299
REMARK  127  A    between atoms: _308  and  _310
REMARK  128  A    between atoms: _310  and  _311
REMARK  129  A    between atoms: _310  and  _313
REMARK  130  A    between atoms: _313  and  _314
REMARK  131  A    between atoms: _317  and  _319
REMARK  132  A    between atoms: _319  and  _320
REMARK  133  A    between atoms: _319  and  _322
REMARK  134  A    between atoms: _322  and  _323
REMARK  135  A    between atoms: _326  and  _328
REMARK  136  A    between atoms: _328  and  _329
REMARK  137  A    between atoms: _328  and  _331
REMARK  138  A    between atoms: _331  and  _332
REMARK  139  A    between atoms: _335  and  _337
REMARK  140  A    between atoms: _337  and  _338
REMARK  141  A    between atoms: _337  and  _340
REMARK  142  A    between atoms: _340  and  _341
REMARK  143  A    between atoms: _344  and  _346
REMARK  144  A    between atoms: _346  and  _347
REMARK  145  A    between atoms: _346  and  _349
REMARK  146  A    between atoms: _349  and  _350
REMARK  147  A    between atoms: _353  and  _355
REMARK  148  A    between atoms: _355  and  _356
REMARK  149  A    between atoms: _358  and  _360
REMARK  150  A    between atoms: _360  and  _361
REMARK  151  A    between atoms: _364  and  _366
REMARK  152  A    between atoms: _366  and  _367
REMARK  153  A    between atoms: _366  and  _369
REMARK  154  A    between atoms: _369  and  _370
REMARK  155  A    between atoms: _373  and  _375
REMARK  156  A    between atoms: _375  and  _376
REMARK  157  A    between atoms: _375  and  _378
REMARK  158  A    between atoms: _378  and  _379
REMARK  159  A    between atoms: _382  and  _384
REMARK  160  A    between atoms: _384  and  _385
REMARK  161  A    between atoms: _384  and  _387
REMARK  162  A    between atoms: _387  and  _388
REMARK  163  A    between atoms: _391  and  _393
REMARK  164  A    between atoms: _393  and  _394
REMARK  165  A    between atoms: _393  and  _396
REMARK  166  A    between atoms: _399  and  _401
REMARK  167  A    between atoms: _401  and  _402
REMARK  168  A    between atoms: _401  and  _404
REMARK  169  A    between atoms: _404  and  _405
REMARK  170  A    between atoms: _408  and  _410
REMARK  171  A    between atoms: _410  and  _411
REMARK  172  A    between atoms: _410  and  _413
REMARK  173  A    between atoms: _413  and  _414
REMARK  174  A    between atoms: _414  and  _415
REMARK  175  A    between atoms: _415  and  _416
REMARK  176  A    between atoms: _416  and  _417
REMARK  177  A    between atoms: _421  and  _423
REMARK  178  A    between atoms: _423  and  _424
REMARK  179  A    between atoms: _423  and  _426
REMARK  180  A    between atoms: _426  and  _427
REMARK  181  A    between atoms: _427  and  _428
REMARK  182  A    between atoms: _430  and  _432
REMARK  183  A    between atoms: _432  and  _433
REMARK  184  A    between atoms: _432  and  _435
REMARK  185  A    between atoms: _435  and  _436
REMARK  186  A    between atoms: _439  and  _441
REMARK  187  A    between atoms: _441  and  _442
REMARK  188  A    between atoms: _444  and  _446
REMARK  189  A    between atoms: _446  and  _447
REMARK  190  A    between atoms: _449  and  _451
REMARK  191  A    between atoms: _451  and  _452
REMARK  192  A    between atoms: _451  and  _454
REMARK  193  A    between atoms: _454  and  _455
REMARK  194  A    between atoms: _458  and  _460
REMARK  195  A    between atoms: _460  and  _461
REMARK  196  A    between atoms: _463  and  _465
REMARK  197  A    between atoms: _465  and  _466
REMARK  198  A    between atoms: _468  and  _470
REMARK  199  A    between atoms: _470  and  _471
REMARK  200  A    between atoms: _470  and  _473
REMARK  201  A    between atoms: _473  and  _474
REMARK  202  A    between atoms: _480  and  _482
REMARK  203  A    between atoms: _482  and  _483
REMARK  204  A    between atoms: _482  and  _485
REMARK  205  A    between atoms: _485  and  _486
REMARK  206  A    between atoms: _489  and  _491
REMARK  207  A    between atoms: _491  and  _492
REMARK  208  A    between atoms: _491  and  _494
REMARK  209  A    between atoms: _497  and  _499
REMARK  210  A    between atoms: _499  and  _500
REMARK  211  A    between atoms: _499  and  _502
REMARK  212  A    between atoms: _502  and  _503
REMARK  213  A    between atoms: _506  and  _508
REMARK  214  A    between atoms: _508  and  _509
REMARK  215  A    between atoms: _508  and  _511
REMARK  216  A    between atoms: _511  and  _512
REMARK  217  A    between atoms: _516  and  _517
REMARK  218  A    between atoms: _522  and  _524
REMARK  219  A    between atoms: _524  and  _525
REMARK  220  A    between atoms: _524  and  _527
REMARK  221  A    between atoms: _530  and  _532
REMARK  222  A    between atoms: _532  and  _533
REMARK  223  A    between atoms: _532  and  _535
REMARK  224  A    between atoms: _535  and  _536
REMARK  225  A    between atoms: _541  and  _543
REMARK  226  A    between atoms: _543  and  _544
REMARK  227  A    between atoms: _543  and  _546
REMARK  228  A    between atoms: _546  and  _547
REMARK  229  A    between atoms: _550  and  _552
REMARK  230  A    between atoms: _552  and  _553
REMARK  231  A    between atoms: _552  and  _555
REMARK  232  A    between atoms: _555  and  _556
REMARK  233  A    between atoms: _559  and  _561
REMARK  234  A    between atoms: _561  and  _562
REMARK  235  A    between atoms: _564  and  _566
REMARK  236  A    between atoms: _566  and  _567
REMARK  237  A    between atoms: _566  and  _569
REMARK  238  A    between atoms: _569  and  _570
REMARK  239  A    between atoms: _570  and  _571
REMARK  240  A    between atoms: _571  and  _572
REMARK                            x       y       z     vdW  Elec       q    Type
REMARK                         _______ _______ _______ _____ _____    ______ ____
ROOT
ATOM      1  CA  LEU A   1      25.549  28.627  10.667  0.00  0.00    +0.133 C 
ENDROOT
BRANCH   1   2
ATOM      2  N   LEU A   1      25.856  28.436   9.253  0.00  0.00    -0.239 NA
ATOM      3  H   LEU A   1      26.729  27.936   8.989  0.00  0.00    +0.142 HD
ENDBRANCH   1   2
BRANCH   1   4
ATOM      4  C   LEU A   1      26.196  29.903  11.188  0.00  0.00    +0.224 C 
ATOM      5  O   LEU A   1      27.336  30.220  10.843  0.00  0.00    -0.287 OA
ENDBRANCH   1   4
BRANCH   1   6
ATOM      6  CB  LEU A   1      26.044  27.427  11.480  0.00  0.00    +0.025 C 
BRANCH   6   7
ATOM      7  CG  LEU A   1      25.463  26.067  11.084  0.00  0.00    +0.002 C 
ATOM      8  CD2 LEU A   1      26.256  24.953  11.746  0.00  0.00    +0.000 C 
ATOM      9  CD1 LEU A   1      23.999  25.994  11.491  0.00  0.00    +0.000 C 
ENDBRANCH   6   7
ENDBRANCH   1   6
TORSDOF 4
REMARK  Name = ../refined-set-2016/1ebw/1ebw_pocket.pdb
REMARK  240 active torsions:
REMARK  status: ('A' for Active; 'I' for Inactive)
REMARK    1  A    between atoms: _1  and  _3
REMARK    2  A    between atoms: _3  and  _4
REMARK    3  A    between atoms: _3  and  _6
REMARK    4  A    between atoms: _6  and  _7
REMARK    5  A    between atoms: _7  and  _8
REMARK    6  A    between atoms: _8  and  _9
REMARK    7  A    between atoms: _18  and  _20
REMARK    8  A    between atoms: _20  and  _21
REMARK    9  A    between atoms: _20  and  _23
REMARK   10  A    between atoms: _23  and  _24
REMARK   11  A    between atoms: _27  and  _29
REMARK   12  A    between atoms: _29  and  _30
REMARK   13  A    between atoms: _29  and  _32
REMARK   14  A    between atoms: _32  and  _33
REMARK   15  A    between atoms: _36  and  _38
REMARK   16  A    between atoms: _38  and  _39
REMARK   17  A    between atoms: _38  and  _41
REMARK   18  A    between atoms: _41  and  _42
REMARK   19  A    between atoms: _45  and  _47
REMARK   20  A    between atoms: _47  and  _48
REMARK   21  A    between atoms: _47  and  _50
REMARK   22  A    between atoms: _50  and  _51
REMARK   23  A    between atoms: _54  and  _56
REMARK   24  A    between atoms: _56  and  _57
REMARK   25  A    between atoms: _56  and  _59
REMARK   26  A    between atoms: _59  and  _60
REMARK   27  A    between atoms: _63  and  _65
REMARK   28  A    between atoms: _65  and  _66
REMARK   29  A    between atoms: _68  and  _70
REMARK   30  A    between atoms: _70  and  _71
REMARK   31  A    between atoms: _74  and  _76
REMARK   32  A    between atoms: _76  and  _77
REMARK   33  A    between atoms: _76  and  _79
REMARK   34  A    between atoms: _79  and  _80
REMARK   35  A    between atoms: _83  and  _85
REMARK   36  A    between atoms: _85  and  _86
REMARK   37  A    between atoms: _85  and  _88
REMARK   38  A    between atoms: _88  and  _89
REMARK   39  A    between atoms: _92  and  _94
REMARK   40  A    between atoms: _94  and  _95
REMARK   41  A    between atoms: _94  and  _97
REMARK   42  A    between atoms: _97  and  _98
REMARK   43  A    between atoms: _101  and  _103
REMARK   44  A    between atoms: _103  and  _104
REMARK   45  A    between atoms: _103  and  _106
REMARK   46  A    between atoms: _109  and  _111
REMARK   47  A    between atoms: _111  and  _112
REMARK   48  A    between atoms: _111  and  _114
REMARK   49  A    between atoms: _114  and  _115
REMARK   50  A    between atoms: _118  and  _120
REMARK   51  A    between atoms: _120  and  _121
REMARK   52  A    between atoms: _120  and  _123
REMARK   53  A    between atoms: _123  and  _124
REMARK   54  A    between atoms: _124  and  _125
REMARK   55  A    between atoms: _125  and  _126
REMARK   56  A    between atoms: _126  and  _127
REMARK   57  A    between atoms: _131  and  _133
REMARK   58  A    between atoms: _133  and  _134
REMARK   59  A    between atoms: _133  and  _136
REMARK   60  A    between atoms: _136  and  _137
REMARK   61  A    between atoms: _137  and  _138
REMARK   62  A    between atoms: _140  and  _142
REMARK   63  A    between atoms: _142  and  _143
REMARK   64  A    between atoms: _142  and  _145
REMARK   65  A    between atoms: _145  and  _146
REMARK   66  A    between atoms: _149  and  _151
REMARK   67  A    between atoms: _151  and  _152
REMARK   68  A    between atoms: _154  and  _156
REMARK   69  A    between atoms: _156  and  _157
REMARK   70  A    between atoms: _159  and  _161
REMARK   71  A    between atoms: _161  and  _162
REMARK   72  A    between atoms: _161  and  _164
REMARK   73  A    between atoms: _164  and  _165
REMARK   74  A    between atoms: _168  and  _170
REMARK   75  A    between atoms: _170  and  _171
REMARK   76  A    between atoms: _173  and  _175
REMARK   77  A    between atoms: _175  and  _176
REMARK   78  A    between atoms: _178  and  _180
REMARK   79  A    between atoms: _180  and  _181
REMARK   80  A    between atoms: _180  and  _183
REMARK   81  A    between atoms: _183  and  _184
REMARK   82  A    between atoms: _190  and  _192
REMARK   83  A    between atoms: _192  and  _193
REMARK   84  A    between atoms: _192  and  _195
REMARK   85  A    between atoms: _195  and  _196
REMARK   86  A    between atoms: _199  and  _201
REMARK   87  A    between atoms: _201  and  _202
REMARK   88  A    between atoms: _201  and  _204
REMARK   89  A    between atoms: _207  and  _209
REMARK   90  A    between atoms: _209  and  _210
REMARK   91  A    between atoms: _209  and  _212
REMARK   92  A    between atoms: _212  and  _213
REMARK   93  A    between atoms: _216  and  _218
REMARK   94  A    between atoms: _218  and  _219
REMARK   95  A    between atoms: _218  and  _221
REMARK   96  A    between atoms: _221  and  _222
REMARK   97  A    between atoms: _226  and  _227
REMARK   98  A    between atoms: _232  and  _234
REMARK   99  A    between atoms: _234  and  _235
REMARK  100  A    between atoms: _234  and  _237
REMARK  101  A    between atoms: _240  and  _242
REMARK  102  A    between atoms: _242  and  _243
REMARK  103  A    between atoms: _242  and  _245
REMARK  104  A    between atoms: _245  and  _246
REMARK  105  A    between atoms: _251  and  _253
REMARK  106  A    between atoms: _253  and  _254
REMARK  107  A    between atoms: _253  and  _256
REMARK  108  A    between atoms: _256  and  _257
REMARK  109  A    between atoms: _260  and  _262
REMARK  110  A    between atoms: _262  and  _263
REMARK  111  A    between atoms: _262  and  _265
REMARK  112  A    between atoms: _265  and  _266
REMARK  113  A    between atoms: _269  and  _271
REMARK  114  A    between atoms: _271  and  _272
REMARK  115  A    between atoms: _274  and  _276
REMARK  116  A    between atoms: _276  and  _277
REMARK  117  A    between atoms: _276  and  _279
REMARK  118  A    between atoms: _279  and  _280
REMARK  119  A    between atoms: _280  and  _281
REMARK  120  A    between atoms: _281  and  _282
REMARK  121  A    between atoms: _291  and  _293
REMARK  122  A    between atoms: _293  and  _294
REMARK  123  A    between atoms: _293  and  _296
REMARK  124  A    between atoms: _296  and  _297
REMARK  125  A    between atoms: _297  and  _298
REMARK  126  A    between atoms: _298  and  _299
REMARK  127  A    between atoms: _308  and  _310
REMARK  128  A    between atoms: _310  and  _311
REMARK  129  A    between atoms: _310  and  _313
REMARK  130  A    between atoms: _313  and  _314
REMARK  131  A    between atoms: _317  and  _319
REMARK  132  A    between atoms: _319  and  _320
REMARK  133  A    between atoms: _319  and  _322
REMARK  134  A    between atoms: _322  and  _323
REMARK  135  A    between atoms: _326  and  _328
REMARK  136  A    between atoms: _328  and  _329
REMARK  137  A    between atoms: _328  and  _331
REMARK  138  A    between atoms: _331  and  _332
REMARK  139  A    between atoms: _335  and  _337
REMARK  140  A    between atoms: _337  and  _338
REMARK  141  A    between atoms: _337  and  _340
REMARK  142  A    between atoms: _340  and  _341
REMARK  143  A    between atoms: _344  and  _346
REMARK  144  A    between atoms: _346  and  _347
REMARK  145  A    between atoms: _346  and  _349
REMARK  146  A    between atoms: _349  and  _350
REMARK  147  A    between atoms: _353  and  _355
REMARK  148  A    between atoms: _355  and  _356
REMARK  149  A    between atoms: _358  and  _360
REMARK  150  A    between atoms: _360  and  _361
REMARK  151  A    between atoms: _364  and  _366
REMARK  152  A    between atoms: _366  and  _367
REMARK  153  A    between atoms: _366  and  _369
REMARK  154  A    between atoms: _369  and  _370
REMARK  155  A    between atoms: _373  and  _375
REMARK  156  A    between atoms: _375  and  _376
REMARK  157  A    between atoms: _375  and  _378
REMARK  158  A    between atoms: _378  and  _379
REMARK  159  A    between atoms: _382  and  _384
REMARK  160  A    between atoms: _384  and  _385
REMARK  161  A    between atoms: _384  and  _387
REMARK  162  A    between atoms: _387  and  _388
REMARK  163  A    between atoms: _391  and  _393
REMARK  164  A    between atoms: _393  and  _394
REMARK  165  A    between atoms: _393  and  _396
REMARK  166  A    between atoms: _399  and  _401
REMARK  167  A    between atoms: _401  and  _402
REMARK  168  A    between atoms: _401  and  _404
REMARK  169  A    between atoms: _404  and  _405
REMARK  170  A    between atoms: _408  and  _410
REMARK  171  A    between atoms: _410  and  _411
REMARK  172  A    between atoms: _410  and  _413
REMARK  173  A    between atoms: _413  and  _414
REMARK  174  A    between atoms: _414  and  _415
REMARK  175  A    between atoms: _415  and  _416
REMARK  176  A    between atoms: _416  and  _417
REMARK  177  A    between atoms: _421  and  _423
REMARK  178  A    between atoms: _423  and  _424
REMARK  179  A    between atoms: _423  and  _426
REMARK  180  A    between atoms: _426  and  _427
REMARK  181  A    between atoms: _427  and  _428
REMARK  182  A    between atoms: _430  and  _432
REMARK  183  A    between atoms: _432  and  _433
REMARK  184  A    between atoms: _432  and  _435
REMARK  185  A    between atoms: _435  and  _436
REMARK  186  A    between atoms: _439  and  _441
REMARK  187  A    between atoms: _441  and  _442
REMARK  188  A    between atoms: _444  and  _446
REMARK  189  A    between atoms: _446  and  _447
REMARK  190  A    between atoms: _449  and  _451
REMARK  191  A    between atoms: _451  and  _452
REMARK  192  A    between atoms: _451  and  _454
REMARK  193  A    between atoms: _454  and  _455
REMARK  194  A    between atoms: _458  and  _460
REMARK  195  A    between atoms: _460  and  _461
REMARK  196  A    between atoms: _463  and  _465
REMARK  197  A    between atoms: _465  and  _466
REMARK  198  A    between atoms: _468  and  _470
REMARK  199  A    between atoms: _470  and  _471
REMARK  200  A    between atoms: _470  and  _473
REMARK  201  A    between atoms: _473  and  _474
REMARK  202  A    between atoms: _480  and  _482
REMARK  203  A    between atoms: _482  and  _483
REMARK  204  A    between atoms: _482  and  _485
REMARK  205  A    between atoms: _485  and  _486
REMARK  206  A    between atoms: _489  and  _491
REMARK  207  A    between atoms: _491  and  _492
REMARK  208  A    between atoms: _491  and  _494
REMARK  209  A    between atoms: _497  and  _499
REMARK  210  A    between atoms: _499  and  _500
REMARK  211  A    between atoms: _499  and  _502
REMARK  212  A    between atoms: _502  and  _503
REMARK  213  A    between atoms: _506  and  _508
REMARK  214  A    between atoms: _508  and  _509
REMARK  215  A    between atoms: _508  and  _511
REMARK  216  A    between atoms: _511  and  _512
REMARK  217  A    between atoms: _516  and  _517
REMARK  218  A    between atoms: _522  and  _524
REMARK  219  A    between atoms: _524  and  _525
REMARK  220  A    between atoms: _524  and  _527
REMARK  221  A    between atoms: _530  and  _532
REMARK  222  A    between atoms: _532  and  _533
REMARK  223  A    between atoms: _532  and  _535
REMARK  224  A    between atoms: _535  and  _536
REMARK  225  A    between atoms: _541  and  _543
REMARK  226  A    between atoms: _543  and  _544
REMARK  227  A    between atoms: _543  and  _546
REMARK  228  A    between atoms: _546  and  _547
REMARK  229  A    between atoms: _550  and  _552
REMARK  230  A    between atoms: _552  and  _553
REMARK  231  A    between atoms: _552  and  _555
REMARK  232  A    between atoms: _555  and  _556
REMARK  233  A    between atoms: _559  and  _561
REMARK  234  A    between atoms: _561  and  _562
REMARK  235  A    between atoms: _564  and  _566
REMARK  236  A    between atoms: _566  and  _567
REMARK  237  A    between atoms: _566  and  _569
REMARK  238  A    between atoms: _569  and  _570
REMARK  239  A    between atoms: _570  and  _571
REMARK  240  A    between atoms: _571  and  _572
REMARK                            x       y       z     vdW  Elec       q    Type
REMARK                         _______ _______ _______ _____ _____    ______ ____
ROOT
ATOM      1  C   ALA A   6      11.354  30.506   5.597  0.00  0.00    +0.241 C 
ATOM      2  O   ALA A   6      11.977  31.567   5.613  0.00  0.00    -0.273 OA
ATOM      3  N   ASP A   7      10.025  30.449   5.592  0.00  0.00    -0.297 N 
ATOM      4  H   ASP A   7       9.551  29.524   5.544  0.00  0.00    +0.150 HD
ENDROOT
BRANCH   1   5
ATOM      5  CA  ALA A   6      12.094  29.172   5.574  0.00  0.00    +0.149 C 
ATOM      6  CB  ALA A   6      12.806  28.959   6.912  0.00  0.00    +0.031 C 
BRANCH   5   8
ATOM      7  C   GLY A   5      12.807  28.324   3.404  0.00  0.00    +0.243 C 
ATOM      8  N   ALA A   6      13.054  29.073   4.478  0.00  0.00    -0.297 N 
ATOM      9  H   ALA A   6      13.950  29.598   4.537  0.00  0.00    +0.150 HD
ATOM     10  O   GLY A   5      11.762  27.681   3.264  0.00  0.00    -0.273 OA
BRANCH   7  11
ATOM     11  CA  GLY A   5      13.879  28.292   2.329  0.00  0.00    +0.176 C 
BRANCH  11  13
ATOM     12  C   THR A   4      15.086  30.387   2.251  0.00  0.00    +0.243 C 
ATOM     13  N   GLY A   5      15.032  29.118   2.643  0.00  0.00    -0.295 N 
ATOM     14  H   GLY A   5      15.824  28.712   3.181  0.00  0.00    +0.150 HD
ATOM     15  O   THR A   4      14.185  30.930   1.602  0.00  0.00    -0.273 OA
BRANCH  12  16
ATOM     16  CA  THR A   4      16.347  31.164   2.639  0.00  0.00    +0.176 C 
BRANCH  16  19
ATOM     17  C   ASP A   3      16.720  30.344   4.904  0.00  0.00    +0.241 C 
ATOM     18  O   ASP A   3      15.640  30.794   5.284  0.00  0.00    -0.273 OA
ATOM     19  N   THR A   4      17.143  30.455   3.645  0.00  0.00    -0.295 N 
ATOM     20  H   THR A   4      18.053  30.032   3.372  0.00  0.00    +0.150 HD
BRANCH  17  21
ATOM     21  CA  ASP A   3      17.620  29.586   5.883  0.00  0.00    +0.160 C 
BRANCH  21  23
ATOM     22  C   LEU A   2      19.770  30.381   6.723  0.00  0.00    +0.241 C 
ATOM     23  N   ASP A   3      18.443  30.408   6.772  0.00  0.00    -0.297 N 
ATOM     24  H   ASP A   3      17.975  31.031   7.461  0.00  0.00    +0.150 HD
ATOM     25  O   LEU A   2      20.397  29.754   5.871  0.00  0.00    -0.273 OA
BRANCH  22  26
ATOM     26  CA  LEU A   2      20.503  31.188   7.793  0.00  0.00    +0.149 C 
BRANCH  26  29
ATOM     27  C   LEU A   1      20.349  29.508   9.560  0.00  0.00    +0.238 C 
ATOM     28  O   LEU A   1      19.173  29.787   9.784  0.00  0.00    -0.274 OA
ATOM     29  N   LEU A   2      21.081  30.146   8.645  0.00  0.00    -0.297 N 
ATOM     30  H   LEU A   2      22.085  29.898   8.534  0.00  0.00    +0.150 HD
BRANCH  27  31
ATOM     31  CA  LEU A   1      21.040  28.399  10.358  0.00  0.00    +0.145 C 
BRANCH  31  32
ATOM     32  N   LEU A   1      20.844  28.563  11.791  0.00  0.00    -0.238 NA
ATOM     33  H   LEU A   1      19.968  28.201  12.218  0.00  0.00    +0.142 HD
ENDBRANCH  31  32
BRANCH  31  34
ATOM     34  CB  LEU A   1      20.476  27.039   9.933  0.00  0.00    +0.026 C 
BRANCH  34  35
ATOM     35  CG  LEU A   1      20.635  26.596   8.480  0.00  0.00    +0.002 C 
ATOM     36  CD2 LEU A   1      19.832  25.313   8.253  0.00  0.00    +0.000 C 
ATOM     37  CD1 LEU A   1      22.106  26.357   8.180  0.00  0.00    +0.000 C 
ENDBRANCH  34  35
ENDBRANCH  31  34
ENDBRANCH  27  31
ENDBRANCH  26  29
BRANCH  26  38
ATOM     38  CB  LEU A   2      21.607  32.053   7.171  0.00  0.00    +0.029 C 
BRANCH  38  39
ATOM     39  CG  LEU A   2      22.427  32.875   8.172  0.00  0.00    +0.002 C 
ATOM     40  CD2 LEU A   2      21.504  33.668   9.084  0.00  0.00    +0.000 C 
ATOM     41  CD1 LEU A   2      23.348  33.814   7.417  0.00  0.00    +0.000 C 
ENDBRANCH  38  39
ENDBRANCH  26  38
ENDBRANCH  22  26
ENDBRANCH  21  23
BRANCH  21  42
ATOM     42  CB  ASP A   3      16.755  28.690   6.771  0.00  0.00    +0.143 C 
BRANCH  42  43
ATOM     43  CG  ASP A   3      16.191  27.492   6.038  0.00  0.00    +0.367 C 
ATOM     44  OD2 ASP A   3      15.774  26.546   6.734  0.00  0.00    -0.246 OA
ATOM     45  OD1 ASP A   3      16.155  27.497   4.792  0.00  0.00    -0.246 OA
ENDBRANCH  42  43
ENDBRANCH  21  42
ENDBRANCH  17  21
ENDBRANCH  16  19
BRANCH  16  46
ATOM     46  CB  THR A   4      17.164  31.449   1.349  0.00  0.00    +0.137 C 
ATOM     47  CG2 THR A   4      18.392  32.301   1.675  0.00  0.00    +0.034 C 
BRANCH  46  48
ATOM     48  OG1 THR A   4      17.585  30.212   0.747  0.00  0.00    -0.382 OA
ATOM     49  HG1 THR A   4      16.789  29.671   0.515  0.00  0.00    +0.210 HD
ENDBRANCH  46  48
ENDBRANCH  16  46
ENDBRANCH  12  16
ENDBRANCH  11  13
ENDBRANCH   7  11
ENDBRANCH   5   8
ENDBRANCH   1   5
BRANCH   3  50
ATOM     50  CA  ASP A   7       9.222  31.667   5.653  0.00  0.00    +0.160 C 
BRANCH  50  51
ATOM     51  C   ASP A   7       9.377  32.280   7.041  0.00  0.00    +0.241 C 
ATOM     52  N   ASP A   8       9.406  31.409   8.047  0.00  0.00    -0.297 N 
ATOM     53  H   ASP A   8       9.372  30.393   7.829  0.00  0.00    +0.150 HD
ATOM     54  O   ASP A   7       9.455  33.502   7.192  0.00  0.00    -0.273 OA
BRANCH  52  55
ATOM     55  CA  ASP A   8       9.484  31.823   9.444  0.00  0.00    +0.160 C 
BRANCH  55  56
ATOM     56  C   ASP A   8      10.786  31.497  10.146  0.00  0.00    +0.241 C 
ATOM     57  N   THR A   9      10.945  32.091  11.324  0.00  0.00    -0.295 N 
ATOM     58  H   THR A   9      10.206  32.744  11.654  0.00  0.00    +0.150 HD
ATOM     59  O   ASP A   8      11.604  30.723   9.658  0.00  0.00    -0.273 OA
BRANCH  57  60
ATOM     60  CA  THR A   9      12.105  31.870  12.172  0.00  0.00    +0.176 C 
BRANCH  60  61
ATOM     61  C   THR A   9      11.615  30.978  13.307  0.00  0.00    +0.243 C 
ATOM     62  O   THR A   9      10.602  31.273  13.938  0.00  0.00    -0.273 OA
ATOM     63  N   VAL A  10      12.308  29.873  13.555  0.00  0.00    -0.297 N 
ATOM     64  H   VAL A  10      13.145  29.642  12.982  0.00  0.00    +0.150 HD
BRANCH  63  65
ATOM     65  CA  VAL A  10      11.892  28.986  14.631  0.00  0.00    +0.149 C 
BRANCH  65  66
ATOM     66  C   VAL A  10      13.089  28.554  15.455  0.00  0.00    +0.241 C 
ATOM     67  N   LEU A  11      12.953  28.663  16.773  0.00  0.00    -0.298 N 
ATOM     68  H   LEU A  11      12.054  29.011  17.162  0.00  0.00    +0.150 HD
ATOM     69  O   VAL A  10      14.119  28.151  14.914  0.00  0.00    -0.273 OA
BRANCH  67  70
ATOM     70  CA  LEU A  11      14.031  28.308  17.686  0.00  0.00    +0.137 C 
BRANCH  70  71
ATOM     71  C   LEU A  11      13.623  27.158  18.591  0.00  0.00    +0.227 C 
ATOM     72  O   LEU A  11      12.436  26.923  18.816  0.00  0.00    -0.286 OA
ENDBRANCH  70  71
BRANCH  70  73
ATOM     73  CB  LEU A  11      14.407  29.513  18.551  0.00  0.00    +0.028 C 
BRANCH  73  74
ATOM     74  CG  LEU A  11      14.841  30.770  17.792  0.00  0.00    +0.002 C 
ATOM     75  CD2 LEU A  11      15.126  31.890  18.781  0.00  0.00    +0.000 C 
ATOM     76  CD1 LEU A  11      16.078  30.465  16.959  0.00  0.00    +0.000 C 
ENDBRANCH  73  74
ENDBRANCH  70  73
ENDBRANCH  67  70
ENDBRANCH  65  66
BRANCH  65  77
ATOM     77  CB  VAL A  10      11.127  27.747  14.086  0.00  0.00    +0.027 C 
ATOM     78  CG2 VAL A  10      10.726  26.829  15.246  0.00  0.00    +0.002 C 
ATOM     79  CG1 VAL A  10      11.975  26.997  13.085  0.00  0.00    +0.002 C 
ENDBRANCH  65  77
ENDBRANCH  63  65
ENDBRANCH  60  61
BRANCH  60  80
ATOM     80  CB  THR A   9      12.628  33.208  12.746  0.00  0.00    +0.137 C 
ATOM     81  CG2 THR A   9      13.644  32.968  13.860  0.00  0.00    +0.034 C 
BRANCH  80  82
ATOM     82  OG1 THR A   9      13.235  33.966  11.693  0.00  0.00    -0.382 OA
ATOM     83  HG1 THR A   9      12.564  34.146  10.988  0.00  0.00    +0.210 HD
ENDBRANCH  80  82
ENDBRANCH  60  80
ENDBRANCH  57  60
ENDBRANCH  55  56
BRANCH  55  84
ATOM     84  CB  ASP A   8       8.360  31.165  10.255  0.00  0.00    +0.143 C 
BRANCH  84  85
ATOM     85  CG  ASP A   8       7.000  31.306   9.610  0.00  0.00    +0.367 C 
ATOM     86  OD2 ASP A   8       6.287  30.284   9.504  0.00  0.00    -0.246 OA
ATOM     87  OD1 ASP A   8       6.635  32.432   9.226  0.00  0.00    -0.246 OA
ENDBRANCH  84  85
ENDBRANCH  55  84
ENDBRANCH  52  55
ENDBRANCH  50  51
BRANCH  50  88
ATOM     88  CB  ASP A   7       7.732  31.370   5.478  0.00  0.00    +0.143 C 
BRANCH  88  89
ATOM     89  CG  ASP A   7       7.347  31.038   4.056  0.00  0.00    +0.367 C 
ATOM     90  OD2 ASP A   7       6.164  30.697   3.860  0.00  0.00    -0.246 OA
ATOM     91  OD1 ASP A   7       8.196  31.125   3.144  0.00  0.00    -0.246 OA
ENDBRANCH  88  89
ENDBRANCH  50  88
ENDBRANCH   3  50
TORSDOF 39
REMARK  Name = ../refined-set-2016/1ebw/1ebw_pocket.pdb
REMARK  240 active torsions:
REMARK  status: ('A' for Active; 'I' for Inactive)
REMARK    1  A    between atoms: _1  and  _3
REMARK    2  A    between atoms: _3  and  _4
REMARK    3  A    between atoms: _3  and  _6
REMARK    4  A    between atoms: _6  and  _7
REMARK    5  A    between atoms: _7  and  _8
REMARK    6  A    between atoms: _8  and  _9
REMARK    7  A    between atoms: _18  and  _20
REMARK    8  A    between atoms: _20  and  _21
REMARK    9  A    between atoms: _20  and  _23
REMARK   10  A    between atoms: _23  and  _24
REMARK   11  A    between atoms: _27  and  _29
REMARK   12  A    between atoms: _29  and  _30
REMARK   13  A    between atoms: _29  and  _32
REMARK   14  A    between atoms: _32  and  _33
REMARK   15  A    between atoms: _36  and  _38
REMARK   16  A    between atoms: _38  and  _39
REMARK   17  A    between atoms: _38  and  _41
REMARK   18  A    between atoms: _41  and  _42
REMARK   19  A    between atoms: _45  and  _47
REMARK   20  A    between atoms: _47  and  _48
REMARK   21  A    between atoms: _47  and  _50
REMARK   22  A    between atoms: _50  and  _51
REMARK   23  A    between atoms: _54  and  _56
REMARK   24  A    between atoms: _56  and  _57
REMARK   25  A    between atoms: _56  and  _59
REMARK   26  A    between atoms: _59  and  _60
REMARK   27  A    between atoms: _63  and  _65
REMARK   28  A    between atoms: _65  and  _66
REMARK   29  A    between atoms: _68  and  _70
REMARK   30  A    between atoms: _70  and  _71
REMARK   31  A    between atoms: _74  and  _76
REMARK   32  A    between atoms: _76  and  _77
REMARK   33  A    between atoms: _76  and  _79
REMARK   34  A    between atoms: _79  and  _80
REMARK   35  A    between atoms: _83  and  _85
REMARK   36  A    between atoms: _85  and  _86
REMARK   37  A    between atoms: _85  and  _88
REMARK   38  A    between atoms: _88  and  _89
REMARK   39  A    between atoms: _92  and  _94
REMARK   40  A    between atoms: _94  and  _95
REMARK   41  A    between atoms: _94  and  _97
REMARK   42  A    between atoms: _97  and  _98
REMARK   43  A    between atoms: _101  and  _103
REMARK   44  A    between atoms: _103  and  _104
REMARK   45  A    between atoms: _103  and  _106
REMARK   46  A    between atoms: _109  and  _111
REMARK   47  A    between atoms: _111  and  _112
REMARK   48  A    between atoms: _111  and  _114
REMARK   49  A    between atoms: _114  and  _115
REMARK   50  A    between atoms: _118  and  _120
REMARK   51  A    between atoms: _120  and  _121
REMARK   52  A    between atoms: _120  and  _123
REMARK   53  A    between atoms: _123  and  _124
REMARK   54  A    between atoms: _124  and  _125
REMARK   55  A    between atoms: _125  and  _126
REMARK   56  A    between atoms: _126  and  _127
REMARK   57  A    between atoms: _131  and  _133
REMARK   58  A    between atoms: _133  and  _134
REMARK   59  A    between atoms: _133  and  _136
REMARK   60  A    between atoms: _136  and  _137
REMARK   61  A    between atoms: _137  and  _138
REMARK   62  A    between atoms: _140  and  _142
REMARK   63  A    between atoms: _142  and  _143
REMARK   64  A    between atoms: _142  and  _145
REMARK   65  A    between atoms: _145  and  _146
REMARK   66  A    between atoms: _149  and  _151
REMARK   67  A    between atoms: _151  and  _152
REMARK   68  A    between atoms: _154  and  _156
REMARK   69  A    between atoms: _156  and  _157
REMARK   70  A    between atoms: _159  and  _161
REMARK   71  A    between atoms: _161  and  _162
REMARK   72  A    between atoms: _161  and  _164
REMARK   73  A    between atoms: _164  and  _165
REMARK   74  A    between atoms: _168  and  _170
REMARK   75  A    between atoms: _170  and  _171
REMARK   76  A    between atoms: _173  and  _175
REMARK   77  A    between atoms: _175  and  _176
REMARK   78  A    between atoms: _178  and  _180
REMARK   79  A    between atoms: _180  and  _181
REMARK   80  A    between atoms: _180  and  _183
REMARK   81  A    between atoms: _183  and  _184
REMARK   82  A    between atoms: _190  and  _192
REMARK   83  A    between atoms: _192  and  _193
REMARK   84  A    between atoms: _192  and  _195
REMARK   85  A    between atoms: _195  and  _196
REMARK   86  A    between atoms: _199  and  _201
REMARK   87  A    between atoms: _201  and  _202
REMARK   88  A    between atoms: _201  and  _204
REMARK   89  A    between atoms: _207  and  _209
REMARK   90  A    between atoms: _209  and  _210
REMARK   91  A    between atoms: _209  and  _212
REMARK   92  A    between atoms: _212  and  _213
REMARK   93  A    between atoms: _216  and  _218
REMARK   94  A    between atoms: _218  and  _219
REMARK   95  A    between atoms: _218  and  _221
REMARK   96  A    between atoms: _221  and  _222
REMARK   97  A    between atoms: _226  and  _227
REMARK   98  A    between atoms: _232  and  _234
REMARK   99  A    between atoms: _234  and  _235
REMARK  100  A    between atoms: _234  and  _237
REMARK  101  A    between atoms: _240  and  _242
REMARK  102  A    between atoms: _242  and  _243
REMARK  103  A    between atoms: _242  and  _245
REMARK  104  A    between atoms: _245  and  _246
REMARK  105  A    between atoms: _251  and  _253
REMARK  106  A    between atoms: _253  and  _254
REMARK  107  A    between atoms: _253  and  _256
REMARK  108  A    between atoms: _256  and  _257
REMARK  109  A    between atoms: _260  and  _262
REMARK  110  A    between atoms: _262  and  _263
REMARK  111  A    between atoms: _262  and  _265
REMARK  112  A    between atoms: _265  and  _266
REMARK  113  A    between atoms: _269  and  _271
REMARK  114  A    between atoms: _271  and  _272
REMARK  115  A    between atoms: _274  and  _276
REMARK  116  A    between atoms: _276  and  _277
REMARK  117  A    between atoms: _276  and  _279
REMARK  118  A    between atoms: _279  and  _280
REMARK  119  A    between atoms: _280  and  _281
REMARK  120  A    between atoms: _281  and  _282
REMARK  121  A    between atoms: _291  and  _293
REMARK  122  A    between atoms: _293  and  _294
REMARK  123  A    between atoms: _293  and  _296
REMARK  124  A    between atoms: _296  and  _297
REMARK  125  A    between atoms: _297  and  _298
REMARK  126  A    between atoms: _298  and  _299
REMARK  127  A    between atoms: _308  and  _310
REMARK  128  A    between atoms: _310  and  _311
REMARK  129  A    between atoms: _310  and  _313
REMARK  130  A    between atoms: _313  and  _314
REMARK  131  A    between atoms: _317  and  _319
REMARK  132  A    between atoms: _319  and  _320
REMARK  133  A    between atoms: _319  and  _322
REMARK  134  A    between atoms: _322  and  _323
REMARK  135  A    between atoms: _326  and  _328
REMARK  136  A    between atoms: _328  and  _329
REMARK  137  A    between atoms: _328  and  _331
REMARK  138  A    between atoms: _331  and  _332
REMARK  139  A    between atoms: _335  and  _337
REMARK  140  A    between atoms: _337  and  _338
REMARK  141  A    between atoms: _337  and  _340
REMARK  142  A    between atoms: _340  and  _341
REMARK  143  A    between atoms: _344  and  _346
REMARK  144  A    between atoms: _346  and  _347
REMARK  145  A    between atoms: _346  and  _349
REMARK  146  A    between atoms: _349  and  _350
REMARK  147  A    between atoms: _353  and  _355
REMARK  148  A    between atoms: _355  and  _356
REMARK  149  A    between atoms: _358  and  _360
REMARK  150  A    between atoms: _360  and  _361
REMARK  151  A    between atoms: _364  and  _366
REMARK  152  A    between atoms: _366  and  _367
REMARK  153  A    between atoms: _366  and  _369
REMARK  154  A    between atoms: _369  and  _370
REMARK  155  A    between atoms: _373  and  _375
REMARK  156  A    between atoms: _375  and  _376
REMARK  157  A    between atoms: _375  and  _378
REMARK  158  A    between atoms: _378  and  _379
REMARK  159  A    between atoms: _382  and  _384
REMARK  160  A    between atoms: _384  and  _385
REMARK  161  A    between atoms: _384  and  _387
REMARK  162  A    between atoms: _387  and  _388
REMARK  163  A    between atoms: _391  and  _393
REMARK  164  A    between atoms: _393  and  _394
REMARK  165  A    between atoms: _393  and  _396
REMARK  166  A    between atoms: _399  and  _401
REMARK  167  A    between atoms: _401  and  _402
REMARK  168  A    between atoms: _401  and  _404
REMARK  169  A    between atoms: _404  and  _405
REMARK  170  A    between atoms: _408  and  _410
REMARK  171  A    between atoms: _410  and  _411
REMARK  172  A    between atoms: _410  and  _413
REMARK  173  A    between atoms: _413  and  _414
REMARK  174  A    between atoms: _414  and  _415
REMARK  175  A    between atoms: _415  and  _416
REMARK  176  A    between atoms: _416  and  _417
REMARK  177  A    between atoms: _421  and  _423
REMARK  178  A    between atoms: _423  and  _424
REMARK  179  A    between atoms: _423  and  _426
REMARK  180  A    between atoms: _426  and  _427
REMARK  181  A    between atoms: _427  and  _428
REMARK  182  A    between atoms: _430  and  _432
REMARK  183  A    between atoms: _432  and  _433
REMARK  184  A    between atoms: _432  and  _435
REMARK  185  A    between atoms: _435  and  _436
REMARK  186  A    between atoms: _439  and  _441
REMARK  187  A    between atoms: _441  and  _442
REMARK  188  A    between atoms: _444  and  _446
REMARK  189  A    between atoms: _446  and  _447
REMARK  190  A    between atoms: _449  and  _451
REMARK  191  A    between atoms: _451  and  _452
REMARK  192  A    between atoms: _451  and  _454
REMARK  193  A    between atoms: _454  and  _455
REMARK  194  A    between atoms: _458  and  _460
REMARK  195  A    between atoms: _460  and  _461
REMARK  196  A    between atoms: _463  and  _465
REMARK  197  A    between atoms: _465  and  _466
REMARK  198  A    between atoms: _468  and  _470
REMARK  199  A    between atoms: _470  and  _471
REMARK  200  A    between atoms: _470  and  _473
REMARK  201  A    between atoms: _473  and  _474
REMARK  202  A    between atoms: _480  and  _482
REMARK  203  A    between atoms: _482  and  _483
REMARK  204  A    between atoms: _482  and  _485
REMARK  205  A    between atoms: _485  and  _486
REMARK  206  A    between atoms: _489  and  _491
REMARK  207  A    between atoms: _491  and  _492
REMARK  208  A    between atoms: _491  and  _494
REMARK  209  A    between atoms: _497  and  _499
REMARK  210  A    between atoms: _499  and  _500
REMARK  211  A    between atoms: _499  and  _502
REMARK  212  A    between atoms: _502  and  _503
REMARK  213  A    between atoms: _506  and  _508
REMARK  214  A    between atoms: _508  and  _509
REMARK  215  A    between atoms: _508  and  _511
REMARK  216  A    between atoms: _511  and  _512
REMARK  217  A    between atoms: _516  and  _517
REMARK  218  A    between atoms: _522  and  _524
REMARK  219  A    between atoms: _524  and  _525
REMARK  220  A    between atoms: _524  and  _527
REMARK  221  A    between atoms: _530  and  _532
REMARK  222  A    between atoms: _532  and  _533
REMARK  223  A    between atoms: _532  and  _535
REMARK  224  A    between atoms: _535  and  _536
REMARK  225  A    between atoms: _541  and  _543
REMARK  226  A    between atoms: _543  and  _544
REMARK  227  A    between atoms: _543  and  _546
REMARK  228  A    between atoms: _546  and  _547
REMARK  229  A    between atoms: _550  and  _552
REMARK  230  A    between atoms: _552  and  _553
REMARK  231  A    between atoms: _552  and  _555
REMARK  232  A    between atoms: _555  and  _556
REMARK  233  A    between atoms: _559  and  _561
REMARK  234  A    between atoms: _561  and  _562
REMARK  235  A    between atoms: _564  and  _566
REMARK  236  A    between atoms: _566  and  _567
REMARK  237  A    between atoms: _566  and  _569
REMARK  238  A    between atoms: _569  and  _570
REMARK  239  A    between atoms: _570  and  _571
REMARK  240  A    between atoms: _571  and  _572
REMARK                            x       y       z     vdW  Elec       q    Type
REMARK                         _______ _______ _______ _____ _____    ______ ____
ROOT
ATOM      1  C   GLY A   5       8.268  20.234   5.739  0.00  0.00    +0.243 C 
ATOM      2  N   ILE A   6       9.491  19.760   5.555  0.00  0.00    -0.297 N 
ATOM      3  H   ILE A   6      10.316  20.349   5.787  0.00  0.00    +0.150 HD
ATOM      4  O   GLY A   5       7.258  19.600   5.437  0.00  0.00    -0.273 OA
ENDROOT
BRANCH   2   5
ATOM      5  CA  ILE A   6       9.682  18.421   5.030  0.00  0.00    +0.149 C 
BRANCH   5   6
ATOM      6  C   ILE A   6       9.380  17.488   6.201  0.00  0.00    +0.241 C 
ATOM      7  O   ILE A   6       9.992  17.598   7.263  0.00  0.00    -0.273 OA
ATOM      8  N   GLY A   7       8.426  16.588   6.014  0.00  0.00    -0.295 N 
ATOM      9  H   GLY A   7       7.916  16.550   5.108  0.00  0.00    +0.150 HD
BRANCH   8  10
ATOM     10  CA  GLY A   7       8.094  15.656   7.073  0.00  0.00    +0.176 C 
BRANCH  10  11
ATOM     11  C   GLY A   7       6.716  15.879   7.651  0.00  0.00    +0.243 C 
ATOM     12  O   GLY A   7       6.127  14.969   8.233  0.00  0.00    -0.273 OA
ATOM     13  N   GLY A   8       6.195  17.089   7.495  0.00  0.00    -0.295 N 
ATOM     14  H   GLY A   8       6.732  17.826   6.994  0.00  0.00    +0.150 HD
BRANCH  13  15
ATOM     15  CA  GLY A   8       4.879  17.384   8.022  0.00  0.00    +0.176 C 
BRANCH  15  16
ATOM     16  C   GLY A   8       4.857  18.664   8.832  0.00  0.00    +0.243 C 
ATOM     17  N   PHE A   9       3.904  18.755   9.752  0.00  0.00    -0.297 N 
ATOM     18  H   PHE A   9       3.247  17.959   9.881  0.00  0.00    +0.150 HD
ATOM     19  O   GLY A   8       5.697  19.544   8.647  0.00  0.00    -0.273 OA
BRANCH  17  20
ATOM     20  CA  PHE A   9       3.754  19.939  10.584  0.00  0.00    +0.153 C 
BRANCH  20  21
ATOM     21  C   PHE A   9       4.105  19.719  12.045  0.00  0.00    +0.241 C 
ATOM     22  N   ILE A  10       4.479  20.805  12.711  0.00  0.00    -0.298 N 
ATOM     23  H   ILE A  10       4.556  21.708  12.200  0.00  0.00    +0.150 HD
ATOM     24  O   PHE A   9       4.033  18.602  12.557  0.00  0.00    -0.273 OA
BRANCH  22  25
ATOM     25  CA  ILE A  10       4.785  20.772  14.135  0.00  0.00    +0.137 C 
BRANCH  25  26
ATOM     26  C   ILE A  10       4.072  21.959  14.781  0.00  0.00    +0.227 C 
ATOM     27  O   ILE A  10       3.818  22.974  14.128  0.00  0.00    -0.286 OA
ENDBRANCH  25  26
BRANCH  25  28
ATOM     28  CB  ILE A  10       6.305  20.875  14.427  0.00  0.00    +0.026 C 
ATOM     29  CG2 ILE A  10       7.017  19.619  13.939  0.00  0.00    +0.002 C 
BRANCH  28  30
ATOM     30  CG1 ILE A  10       6.889  22.135  13.787  0.00  0.00    +0.002 C 
ATOM     31  CD1 ILE A  10       8.340  22.370  14.149  0.00  0.00    +0.000 C 
ENDBRANCH  28  30
ENDBRANCH  25  28
ENDBRANCH  22  25
ENDBRANCH  20  21
BRANCH  20  32
ATOM     32  CB  PHE A   9       2.310  20.442  10.531  0.00  0.00    +0.055 C 
BRANCH  32  33
ATOM     33  CG  PHE A   9       1.914  21.041   9.219  0.00  0.00    -0.020 A 
ATOM     34  CD2 PHE A   9       1.628  22.400   9.127  0.00  0.00    -0.004 A 
ATOM     35  CE2 PHE A   9       1.229  22.964   7.920  0.00  0.00    -0.000 A 
ATOM     36  CZ  PHE A   9       1.113  22.165   6.788  0.00  0.00    -0.000 A 
ATOM     37  CE1 PHE A   9       1.397  20.809   6.866  0.00  0.00    -0.000 A 
ATOM     38  CD1 PHE A   9       1.797  20.251   8.080  0.00  0.00    -0.004 A 
ENDBRANCH  32  33
ENDBRANCH  20  32
ENDBRANCH  17  20
ENDBRANCH  15  16
ENDBRANCH  13  15
ENDBRANCH  10  11
ENDBRANCH   8  10
ENDBRANCH   5   6
BRANCH   5  39
ATOM     39  CB  ILE A   6      11.143  18.194   4.554  0.00  0.00    +0.027 C 
ATOM     40  CG2 ILE A   6      11.484  16.719   4.579  0.00  0.00    +0.002 C 
BRANCH  39  41
ATOM     41  CG1 ILE A   6      11.327  18.758   3.142  0.00  0.00    +0.002 C 
ATOM     42  CD1 ILE A   6      11.251  20.259   3.076  0.00  0.00    +0.000 C 
ENDBRANCH  39  41
ENDBRANCH   5  39
ENDBRANCH   2   5
BRANCH   1  43
ATOM     43  CA  GLY A   5       8.154  21.618   6.332  0.00  0.00    +0.176 C 
BRANCH  43  45
ATOM     44  C   GLY A   4       6.207  22.759   7.199  0.00  0.00    +0.243 C 
ATOM     45  N   GLY A   5       6.931  21.653   7.104  0.00  0.00    -0.295 N 
ATOM     46  H   GLY A   5       6.613  20.793   7.594  0.00  0.00    +0.150 HD
ATOM     47  O   GLY A   4       6.529  23.827   6.676  0.00  0.00    -0.273 OA
BRANCH  44  48
ATOM     48  CA  GLY A   4       4.944  22.632   8.019  0.00  0.00    +0.176 C 
BRANCH  48  51
ATOM     49  C   ILE A   3       4.531  23.880  10.028  0.00  0.00    +0.241 C 
ATOM     50  O   ILE A   3       4.821  22.909  10.729  0.00  0.00    -0.273 OA
ATOM     51  N   GLY A   4       4.563  23.848   8.703  0.00  0.00    -0.295 N 
ATOM     52  H   GLY A   4       4.314  24.697   8.156  0.00  0.00    +0.150 HD
BRANCH  49  53
ATOM     53  CA  ILE A   3       4.102  25.195  10.659  0.00  0.00    +0.149 C 
BRANCH  53  55
ATOM     54  C   MET A   2       2.030  25.391  11.896  0.00  0.00    +0.241 C 
ATOM     55  N   ILE A   3       3.262  24.901  11.813  0.00  0.00    -0.297 N 
ATOM     56  H   ILE A   3       3.631  24.302  12.579  0.00  0.00    +0.150 HD
ATOM     57  O   MET A   2       1.557  26.145  11.047  0.00  0.00    -0.273 OA
BRANCH  54  58
ATOM     58  CA  MET A   2       1.213  25.009  13.121  0.00  0.00    +0.149 C 
BRANCH  58  61
ATOM     59  C   LYS A   1       1.168  26.649  14.926  0.00  0.00    +0.238 C 
ATOM     60  O   LYS A   1       1.949  26.000  15.626  0.00  0.00    -0.274 OA
ATOM     61  N   MET A   2       0.746  26.245  13.735  0.00  0.00    -0.297 N 
ATOM     62  H   MET A   2       0.057  26.831  13.221  0.00  0.00    +0.150 HD
BRANCH  59  63
ATOM     63  CA  LYS A   1       0.613  27.980  15.409  0.00  0.00    +0.145 C 
BRANCH  63  64
ATOM     64  N   LYS A   1       0.505  27.975  16.861  0.00  0.00    -0.238 NA
ATOM     65  H   LYS A   1       1.103  27.330  17.415  0.00  0.00    +0.142 HD
ENDBRANCH  63  64
BRANCH  63  66
ATOM     66  CB  LYS A   1       1.533  29.112  14.931  0.00  0.00    +0.026 C 
BRANCH  66  67
ATOM     67  CG  LYS A   1       1.609  29.231  13.408  0.00  0.00    -0.000 C 
BRANCH  67  68
ATOM     68  CD  LYS A   1       2.506  30.382  12.950  0.00  0.00    -0.024 C 
BRANCH  68  69
ATOM     69  CE  LYS A   1       2.488  30.512  11.427  0.00  0.00    -0.086 C 
BRANCH  69  70
ATOM     70  NZ  LYS A   1       3.366  31.609  10.916  0.00  0.00    +0.380 N 
ATOM     71  HZ1 LYS A   1       3.050  32.517  11.312  0.00  0.00    -0.089 HD
ATOM     72  HZ2 LYS A   1       4.349  31.427  11.204  0.00  0.00    -0.089 HD
ATOM     73  HZ3 LYS A   1       3.308  31.643   9.878  0.00  0.00    -0.089 HD
ENDBRANCH  69  70
ENDBRANCH  68  69
ENDBRANCH  67  68
ENDBRANCH  66  67
ENDBRANCH  63  66
ENDBRANCH  59  63
ENDBRANCH  58  61
BRANCH  58  74
ATOM     74  CB  MET A   2       0.028  24.139  12.680  0.00  0.00    +0.041 C 
BRANCH  74  75
ATOM     75  CG  MET A   2      -0.708  23.455  13.813  0.00  0.00    +0.060 C 
BRANCH  75  76
ATOM     76  SD  MET A   2       0.241  22.108  14.505  0.00  0.00    -0.139 S 
ATOM     77  CE  MET A   2      -0.362  20.751  13.507  0.00  0.00    +0.069 C 
ENDBRANCH  75  76
ENDBRANCH  74  75
ENDBRANCH  58  74
ENDBRANCH  54  58
ENDBRANCH  53  55
BRANCH  53  78
ATOM     78  CB  ILE A   3       5.360  26.000  11.044  0.00  0.00    +0.027 C 
ATOM     79  CG2 ILE A   3       4.964  27.404  11.481  0.00  0.00    +0.002 C 
BRANCH  78  80
ATOM     80  CG1 ILE A   3       6.132  25.265  12.142  0.00  0.00    +0.002 C 
ATOM     81  CD1 ILE A   3       7.469  25.895  12.475  0.00  0.00    +0.000 C 
ENDBRANCH  78  80
ENDBRANCH  53  78
ENDBRANCH  49  53
ENDBRANCH  48  51
ENDBRANCH  44  48
ENDBRANCH  43  45
ENDBRANCH   1  43
TORSDOF 36
REMARK  Name = ../refined-set-2016/1ebw/1ebw_pocket.pdb
REMARK  240 active torsions:
REMARK  status: ('A' for Active; 'I' for Inactive)
REMARK    1  A    between atoms: _1  and  _3
REMARK    2  A    between atoms: _3  and  _4
REMARK    3  A    between atoms: _3  and  _6
REMARK    4  A    between atoms: _6  and  _7
REMARK    5  A    between atoms: _7  and  _8
REMARK    6  A    between atoms: _8  and  _9
REMARK    7  A    between atoms: _18  and  _20
REMARK    8  A    between atoms: _20  and  _21
REMARK    9  A    between atoms: _20  and  _23
REMARK   10  A    between atoms: _23  and  _24
REMARK   11  A    between atoms: _27  and  _29
REMARK   12  A    between atoms: _29  and  _30
REMARK   13  A    between atoms: _29  and  _32
REMARK   14  A    between atoms: _32  and  _33
REMARK   15  A    between atoms: _36  and  _38
REMARK   16  A    between atoms: _38  and  _39
REMARK   17  A    between atoms: _38  and  _41
REMARK   18  A    between atoms: _41  and  _42
REMARK   19  A    between atoms: _45  and  _47
REMARK   20  A    between atoms: _47  and  _48
REMARK   21  A    between atoms: _47  and  _50
REMARK   22  A    between atoms: _50  and  _51
REMARK   23  A    between atoms: _54  and  _56
REMARK   24  A    between atoms: _56  and  _57
REMARK   25  A    between atoms: _56  and  _59
REMARK   26  A    between atoms: _59  and  _60
REMARK   27  A    between atoms: _63  and  _65
REMARK   28  A    between atoms: _65  and  _66
REMARK   29  A    between atoms: _68  and  _70
REMARK   30  A    between atoms: _70  and  _71
REMARK   31  A    between atoms: _74  and  _76
REMARK   32  A    between atoms: _76  and  _77
REMARK   33  A    between atoms: _76  and  _79
REMARK   34  A    between atoms: _79  and  _80
REMARK   35  A    between atoms: _83  and  _85
REMARK   36  A    between atoms: _85  and  _86
REMARK   37  A    between atoms: _85  and  _88
REMARK   38  A    between atoms: _88  and  _89
REMARK   39  A    between atoms: _92  and  _94
REMARK   40  A    between atoms: _94  and  _95
REMARK   41  A    between atoms: _94  and  _97
REMARK   42  A    between atoms: _97  and  _98
REMARK   43  A    between atoms: _101  and  _103
REMARK   44  A    between atoms: _103  and  _104
REMARK   45  A    between atoms: _103  and  _106
REMARK   46  A    between atoms: _109  and  _111
REMARK   47  A    between atoms: _111  and  _112
REMARK   48  A    between atoms: _111  and  _114
REMARK   49  A    between atoms: _114  and  _115
REMARK   50  A    between atoms: _118  and  _120
REMARK   51  A    between atoms: _120  and  _121
REMARK   52  A    between atoms: _120  and  _123
REMARK   53  A    between atoms: _123  and  _124
REMARK   54  A    between atoms: _124  and  _125
REMARK   55  A    between atoms: _125  and  _126
REMARK   56  A    between atoms: _126  and  _127
REMARK   57  A    between atoms: _131  and  _133
REMARK   58  A    between atoms: _133  and  _134
REMARK   59  A    between atoms: _133  and  _136
REMARK   60  A    between atoms: _136  and  _137
REMARK   61  A    between atoms: _137  and  _138
REMARK   62  A    between atoms: _140  and  _142
REMARK   63  A    between atoms: _142  and  _143
REMARK   64  A    between atoms: _142  and  _145
REMARK   65  A    between atoms: _145  and  _146
REMARK   66  A    between atoms: _149  and  _151
REMARK   67  A    between atoms: _151  and  _152
REMARK   68  A    between atoms: _154  and  _156
REMARK   69  A    between atoms: _156  and  _157
REMARK   70  A    between atoms: _159  and  _161
REMARK   71  A    between atoms: _161  and  _162
REMARK   72  A    between atoms: _161  and  _164
REMARK   73  A    between atoms: _164  and  _165
REMARK   74  A    between atoms: _168  and  _170
REMARK   75  A    between atoms: _170  and  _171
REMARK   76  A    between atoms: _173  and  _175
REMARK   77  A    between atoms: _175  and  _176
REMARK   78  A    between atoms: _178  and  _180
REMARK   79  A    between atoms: _180  and  _181
REMARK   80  A    between atoms: _180  and  _183
REMARK   81  A    between atoms: _183  and  _184
REMARK   82  A    between atoms: _190  and  _192
REMARK   83  A    between atoms: _192  and  _193
REMARK   84  A    between atoms: _192  and  _195
REMARK   85  A    between atoms: _195  and  _196
REMARK   86  A    between atoms: _199  and  _201
REMARK   87  A    between atoms: _201  and  _202
REMARK   88  A    between atoms: _201  and  _204
REMARK   89  A    between atoms: _207  and  _209
REMARK   90  A    between atoms: _209  and  _210
REMARK   91  A    between atoms: _209  and  _212
REMARK   92  A    between atoms: _212  and  _213
REMARK   93  A    between atoms: _216  and  _218
REMARK   94  A    between atoms: _218  and  _219
REMARK   95  A    between atoms: _218  and  _221
REMARK   96  A    between atoms: _221  and  _222
REMARK   97  A    between atoms: _226  and  _227
REMARK   98  A    between atoms: _232  and  _234
REMARK   99  A    between atoms: _234  and  _235
REMARK  100  A    between atoms: _234  and  _237
REMARK  101  A    between atoms: _240  and  _242
REMARK  102  A    between atoms: _242  and  _243
REMARK  103  A    between atoms: _242  and  _245
REMARK  104  A    between atoms: _245  and  _246
REMARK  105  A    between atoms: _251  and  _253
REMARK  106  A    between atoms: _253  and  _254
REMARK  107  A    between atoms: _253  and  _256
REMARK  108  A    between atoms: _256  and  _257
REMARK  109  A    between atoms: _260  and  _262
REMARK  110  A    between atoms: _262  and  _263
REMARK  111  A    between atoms: _262  and  _265
REMARK  112  A    between atoms: _265  and  _266
REMARK  113  A    between atoms: _269  and  _271
REMARK  114  A    between atoms: _271  and  _272
REMARK  115  A    between atoms: _274  and  _276
REMARK  116  A    between atoms: _276  and  _277
REMARK  117  A    between atoms: _276  and  _279
REMARK  118  A    between atoms: _279  and  _280
REMARK  119  A    between atoms: _280  and  _281
REMARK  120  A    between atoms: _281  and  _282
REMARK  121  A    between atoms: _291  and  _293
REMARK  122  A    between atoms: _293  and  _294
REMARK  123  A    between atoms: _293  and  _296
REMARK  124  A    between atoms: _296  and  _297
REMARK  125  A    between atoms: _297  and  _298
REMARK  126  A    between atoms: _298  and  _299
REMARK  127  A    between atoms: _308  and  _310
REMARK  128  A    between atoms: _310  and  _311
REMARK  129  A    between atoms: _310  and  _313
REMARK  130  A    between atoms: _313  and  _314
REMARK  131  A    between atoms: _317  and  _319
REMARK  132  A    between atoms: _319  and  _320
REMARK  133  A    between atoms: _319  and  _322
REMARK  134  A    between atoms: _322  and  _323
REMARK  135  A    between atoms: _326  and  _328
REMARK  136  A    between atoms: _328  and  _329
REMARK  137  A    between atoms: _328  and  _331
REMARK  138  A    between atoms: _331  and  _332
REMARK  139  A    between atoms: _335  and  _337
REMARK  140  A    between atoms: _337  and  _338
REMARK  141  A    between atoms: _337  and  _340
REMARK  142  A    between atoms: _340  and  _341
REMARK  143  A    between atoms: _344  and  _346
REMARK  144  A    between atoms: _346  and  _347
REMARK  145  A    between atoms: _346  and  _349
REMARK  146  A    between atoms: _349  and  _350
REMARK  147  A    between atoms: _353  and  _355
REMARK  148  A    between atoms: _355  and  _356
REMARK  149  A    between atoms: _358  and  _360
REMARK  150  A    between atoms: _360  and  _361
REMARK  151  A    between atoms: _364  and  _366
REMARK  152  A    between atoms: _366  and  _367
REMARK  153  A    between atoms: _366  and  _369
REMARK  154  A    between atoms: _369  and  _370
REMARK  155  A    between atoms: _373  and  _375
REMARK  156  A    between atoms: _375  and  _376
REMARK  157  A    between atoms: _375  and  _378
REMARK  158  A    between atoms: _378  and  _379
REMARK  159  A    between atoms: _382  and  _384
REMARK  160  A    between atoms: _384  and  _385
REMARK  161  A    between atoms: _384  and  _387
REMARK  162  A    between atoms: _387  and  _388
REMARK  163  A    between atoms: _391  and  _393
REMARK  164  A    between atoms: _393  and  _394
REMARK  165  A    between atoms: _393  and  _396
REMARK  166  A    between atoms: _399  and  _401
REMARK  167  A    between atoms: _401  and  _402
REMARK  168  A    between atoms: _401  and  _404
REMARK  169  A    between atoms: _404  and  _405
REMARK  170  A    between atoms: _408  and  _410
REMARK  171  A    between atoms: _410  and  _411
REMARK  172  A    between atoms: _410  and  _413
REMARK  173  A    between atoms: _413  and  _414
REMARK  174  A    between atoms: _414  and  _415
REMARK  175  A    between atoms: _415  and  _416
REMARK  176  A    between atoms: _416  and  _417
REMARK  177  A    between atoms: _421  and  _423
REMARK  178  A    between atoms: _423  and  _424
REMARK  179  A    between atoms: _423  and  _426
REMARK  180  A    between atoms: _426  and  _427
REMARK  181  A    between atoms: _427  and  _428
REMARK  182  A    between atoms: _430  and  _432
REMARK  183  A    between atoms: _432  and  _433
REMARK  184  A    between atoms: _432  and  _435
REMARK  185  A    between atoms: _435  and  _436
REMARK  186  A    between atoms: _439  and  _441
REMARK  187  A    between atoms: _441  and  _442
REMARK  188  A    between atoms: _444  and  _446
REMARK  189  A    between atoms: _446  and  _447
REMARK  190  A    between atoms: _449  and  _451
REMARK  191  A    between atoms: _451  and  _452
REMARK  192  A    between atoms: _451  and  _454
REMARK  193  A    between atoms: _454  and  _455
REMARK  194  A    between atoms: _458  and  _460
REMARK  195  A    between atoms: _460  and  _461
REMARK  196  A    between atoms: _463  and  _465
REMARK  197  A    between atoms: _465  and  _466
REMARK  198  A    between atoms: _468  and  _470
REMARK  199  A    between atoms: _470  and  _471
REMARK  200  A    between atoms: _470  and  _473
REMARK  201  A    between atoms: _473  and  _474
REMARK  202  A    between atoms: _480  and  _482
REMARK  203  A    between atoms: _482  and  _483
REMARK  204  A    between atoms: _482  and  _485
REMARK  205  A    between atoms: _485  and  _486
REMARK  206  A    between atoms: _489  and  _491
REMARK  207  A    between atoms: _491  and  _492
REMARK  208  A    between atoms: _491  and  _494
REMARK  209  A    between atoms: _497  and  _499
REMARK  210  A    between atoms: _499  and  _500
REMARK  211  A    between atoms: _499  and  _502
REMARK  212  A    between atoms: _502  and  _503
REMARK  213  A    between atoms: _506  and  _508
REMARK  214  A    between atoms: _508  and  _509
REMARK  215  A    between atoms: _508  and  _511
REMARK  216  A    between atoms: _511  and  _512
REMARK  217  A    between atoms: _516  and  _517
REMARK  218  A    between atoms: _522  and  _524
REMARK  219  A    between atoms: _524  and  _525
REMARK  220  A    between atoms: _524  and  _527
REMARK  221  A    between atoms: _530  and  _532
REMARK  222  A    between atoms: _532  and  _533
REMARK  223  A    between atoms: _532  and  _535
REMARK  224  A    between atoms: _535  and  _536
REMARK  225  A    between atoms: _541  and  _543
REMARK  226  A    between atoms: _543  and  _544
REMARK  227  A    between atoms: _543  and  _546
REMARK  228  A    between atoms: _546  and  _547
REMARK  229  A    between atoms: _550  and  _552
REMARK  230  A    between atoms: _552  and  _553
REMARK  231  A    between atoms: _552  and  _555
REMARK  232  A    between atoms: _555  and  _556
REMARK  233  A    between atoms: _559  and  _561
REMARK  234  A    between atoms: _561  and  _562
REMARK  235  A    between atoms: _564  and  _566
REMARK  236  A    between atoms: _566  and  _567
REMARK  237  A    between atoms: _566  and  _569
REMARK  238  A    between atoms: _569  and  _570
REMARK  239  A    between atoms: _570  and  _571
REMARK  240  A    between atoms: _571  and  _572
REMARK                            x       y       z     vdW  Elec       q    Type
REMARK                         _______ _______ _______ _____ _____    ______ ____
ROOT
ATOM      1  CA  VAL A   1       4.956  25.972  17.923  0.00  0.00    +0.133 C 
ENDROOT
BRANCH   1   2
ATOM      2  CB  VAL A   1       5.890  26.615  16.861  0.00  0.00    +0.023 C 
ATOM      3  CG2 VAL A   1       6.765  25.550  16.201  0.00  0.00    +0.002 C 
ATOM      4  CG1 VAL A   1       5.056  27.342  15.815  0.00  0.00    +0.002 C 
ENDBRANCH   1   2
BRANCH   1   5
ATOM      5  N   VAL A   1       4.019  25.040  17.315  0.00  0.00    -0.239 NA
ATOM      6  H   VAL A   1       3.261  25.410  16.706  0.00  0.00    +0.142 HD
ENDBRANCH   1   5
BRANCH   1   7
ATOM      7  C   VAL A   1       4.204  27.097  18.627  0.00  0.00    +0.224 C 
ATOM      8  O   VAL A   1       2.995  27.232  18.475  0.00  0.00    -0.287 OA
ENDBRANCH   1   7
TORSDOF 3
REMARK  Name = ../refined-set-2016/1ebw/1ebw_pocket.pdb
REMARK  240 active torsions:
REMARK  status: ('A' for Active; 'I' for Inactive)
REMARK    1  A    between atoms: _1  and  _3
REMARK    2  A    between atoms: _3  and  _4
REMARK    3  A    between atoms: _3  and  _6
REMARK    4  A    between atoms: _6  and  _7
REMARK    5  A    between atoms: _7  and  _8
REMARK    6  A    between atoms: _8  and  _9
REMARK    7  A    between atoms: _18  and  _20
REMARK    8  A    between atoms: _20  and  _21
REMARK    9  A    between atoms: _20  and  _23
REMARK   10  A    between atoms: _23  and  _24
REMARK   11  A    between atoms: _27  and  _29
REMARK   12  A    between atoms: _29  and  _30
REMARK   13  A    between atoms: _29  and  _32
REMARK   14  A    between atoms: _32  and  _33
REMARK   15  A    between atoms: _36  and  _38
REMARK   16  A    between atoms: _38  and  _39
REMARK   17  A    between atoms: _38  and  _41
REMARK   18  A    between atoms: _41  and  _42
REMARK   19  A    between atoms: _45  and  _47
REMARK   20  A    between atoms: _47  and  _48
REMARK   21  A    between atoms: _47  and  _50
REMARK   22  A    between atoms: _50  and  _51
REMARK   23  A    between atoms: _54  and  _56
REMARK   24  A    between atoms: _56  and  _57
REMARK   25  A    between atoms: _56  and  _59
REMARK   26  A    between atoms: _59  and  _60
REMARK   27  A    between atoms: _63  and  _65
REMARK   28  A    between atoms: _65  and  _66
REMARK   29  A    between atoms: _68  and  _70
REMARK   30  A    between atoms: _70  and  _71
REMARK   31  A    between atoms: _74  and  _76
REMARK   32  A    between atoms: _76  and  _77
REMARK   33  A    between atoms: _76  and  _79
REMARK   34  A    between atoms: _79  and  _80
REMARK   35  A    between atoms: _83  and  _85
REMARK   36  A    between atoms: _85  and  _86
REMARK   37  A    between atoms: _85  and  _88
REMARK   38  A    between atoms: _88  and  _89
REMARK   39  A    between atoms: _92  and  _94
REMARK   40  A    between atoms: _94  and  _95
REMARK   41  A    between atoms: _94  and  _97
REMARK   42  A    between atoms: _97  and  _98
REMARK   43  A    between atoms: _101  and  _103
REMARK   44  A    between atoms: _103  and  _104
REMARK   45  A    between atoms: _103  and  _106
REMARK   46  A    between atoms: _109  and  _111
REMARK   47  A    between atoms: _111  and  _112
REMARK   48  A    between atoms: _111  and  _114
REMARK   49  A    between atoms: _114  and  _115
REMARK   50  A    between atoms: _118  and  _120
REMARK   51  A    between atoms: _120  and  _121
REMARK   52  A    between atoms: _120  and  _123
REMARK   53  A    between atoms: _123  and  _124
REMARK   54  A    between atoms: _124  and  _125
REMARK   55  A    between atoms: _125  and  _126
REMARK   56  A    between atoms: _126  and  _127
REMARK   57  A    between atoms: _131  and  _133
REMARK   58  A    between atoms: _133  and  _134
REMARK   59  A    between atoms: _133  and  _136
REMARK   60  A    between atoms: _136  and  _137
REMARK   61  A    between atoms: _137  and  _138
REMARK   62  A    between atoms: _140  and  _142
REMARK   63  A    between atoms: _142  and  _143
REMARK   64  A    between atoms: _142  and  _145
REMARK   65  A    between atoms: _145  and  _146
REMARK   66  A    between atoms: _149  and  _151
REMARK   67  A    between atoms: _151  and  _152
REMARK   68  A    between atoms: _154  and  _156
REMARK   69  A    between atoms: _156  and  _157
REMARK   70  A    between atoms: _159  and  _161
REMARK   71  A    between atoms: _161  and  _162
REMARK   72  A    between atoms: _161  and  _164
REMARK   73  A    between atoms: _164  and  _165
REMARK   74  A    between atoms: _168  and  _170
REMARK   75  A    between atoms: _170  and  _171
REMARK   76  A    between atoms: _173  and  _175
REMARK   77  A    between atoms: _175  and  _176
REMARK   78  A    between atoms: _178  and  _180
REMARK   79  A    between atoms: _180  and  _181
REMARK   80  A    between atoms: _180  and  _183
REMARK   81  A    between atoms: _183  and  _184
REMARK   82  A    between atoms: _190  and  _192
REMARK   83  A    between atoms: _192  and  _193
REMARK   84  A    between atoms: _192  and  _195
REMARK   85  A    between atoms: _195  and  _196
REMARK   86  A    between atoms: _199  and  _201
REMARK   87  A    between atoms: _201  and  _202
REMARK   88  A    between atoms: _201  and  _204
REMARK   89  A    between atoms: _207  and  _209
REMARK   90  A    between atoms: _209  and  _210
REMARK   91  A    between atoms: _209  and  _212
REMARK   92  A    between atoms: _212  and  _213
REMARK   93  A    between atoms: _216  and  _218
REMARK   94  A    between atoms: _218  and  _219
REMARK   95  A    between atoms: _218  and  _221
REMARK   96  A    between atoms: _221  and  _222
REMARK   97  A    between atoms: _226  and  _227
REMARK   98  A    between atoms: _232  and  _234
REMARK   99  A    between atoms: _234  and  _235
REMARK  100  A    between atoms: _234  and  _237
REMARK  101  A    between atoms: _240  and  _242
REMARK  102  A    between atoms: _242  and  _243
REMARK  103  A    between atoms: _242  and  _245
REMARK  104  A    between atoms: _245  and  _246
REMARK  105  A    between atoms: _251  and  _253
REMARK  106  A    between atoms: _253  and  _254
REMARK  107  A    between atoms: _253  and  _256
REMARK  108  A    between atoms: _256  and  _257
REMARK  109  A    between atoms: _260  and  _262
REMARK  110  A    between atoms: _262  and  _263
REMARK  111  A    between atoms: _262  and  _265
REMARK  112  A    between atoms: _265  and  _266
REMARK  113  A    between atoms: _269  and  _271
REMARK  114  A    between atoms: _271  and  _272
REMARK  115  A    between atoms: _274  and  _276
REMARK  116  A    between atoms: _276  and  _277
REMARK  117  A    between atoms: _276  and  _279
REMARK  118  A    between atoms: _279  and  _280
REMARK  119  A    between atoms: _280  and  _281
REMARK  120  A    between atoms: _281  and  _282
REMARK  121  A    between atoms: _291  and  _293
REMARK  122  A    between atoms: _293  and  _294
REMARK  123  A    between atoms: _293  and  _296
REMARK  124  A    between atoms: _296  and  _297
REMARK  125  A    between atoms: _297  and  _298
REMARK  126  A    between atoms: _298  and  _299
REMARK  127  A    between atoms: _308  and  _310
REMARK  128  A    between atoms: _310  and  _311
REMARK  129  A    between atoms: _310  and  _313
REMARK  130  A    between atoms: _313  and  _314
REMARK  131  A    between atoms: _317  and  _319
REMARK  132  A    between atoms: _319  and  _320
REMARK  133  A    between atoms: _319  and  _322
REMARK  134  A    between atoms: _322  and  _323
REMARK  135  A    between atoms: _326  and  _328
REMARK  136  A    between atoms: _328  and  _329
REMARK  137  A    between atoms: _328  and  _331
REMARK  138  A    between atoms: _331  and  _332
REMARK  139  A    between atoms: _335  and  _337
REMARK  140  A    between atoms: _337  and  _338
REMARK  141  A    between atoms: _337  and  _340
REMARK  142  A    between atoms: _340  and  _341
REMARK  143  A    between atoms: _344  and  _346
REMARK  144  A    between atoms: _346  and  _347
REMARK  145  A    between atoms: _346  and  _349
REMARK  146  A    between atoms: _349  and  _350
REMARK  147  A    between atoms: _353  and  _355
REMARK  148  A    between atoms: _355  and  _356
REMARK  149  A    between atoms: _358  and  _360
REMARK  150  A    between atoms: _360  and  _361
REMARK  151  A    between atoms: _364  and  _366
REMARK  152  A    between atoms: _366  and  _367
REMARK  153  A    between atoms: _366  and  _369
REMARK  154  A    between atoms: _369  and  _370
REMARK  155  A    between atoms: _373  and  _375
REMARK  156  A    between atoms: _375  and  _376
REMARK  157  A    between atoms: _375  and  _378
REMARK  158  A    between atoms: _378  and  _379
REMARK  159  A    between atoms: _382  and  _384
REMARK  160  A    between atoms: _384  and  _385
REMARK  161  A    between atoms: _384  and  _387
REMARK  162  A    between atoms: _387  and  _388
REMARK  163  A    between atoms: _391  and  _393
REMARK  164  A    between atoms: _393  and  _394
REMARK  165  A    between atoms: _393  and  _396
REMARK  166  A    between atoms: _399  and  _401
REMARK  167  A    between atoms: _401  and  _402
REMARK  168  A    between atoms: _401  and  _404
REMARK  169  A    between atoms: _404  and  _405
REMARK  170  A    between atoms: _408  and  _410
REMARK  171  A    between atoms: _410  and  _411
REMARK  172  A    between atoms: _410  and  _413
REMARK  173  A    between atoms: _413  and  _414
REMARK  174  A    between atoms: _414  and  _415
REMARK  175  A    between atoms: _415  and  _416
REMARK  176  A    between atoms: _416  and  _417
REMARK  177  A    between atoms: _421  and  _423
REMARK  178  A    between atoms: _423  and  _424
REMARK  179  A    between atoms: _423  and  _426
REMARK  180  A    between atoms: _426  and  _427
REMARK  181  A    between atoms: _427  and  _428
REMARK  182  A    between atoms: _430  and  _432
REMARK  183  A    between atoms: _432  and  _433
REMARK  184  A    between atoms: _432  and  _435
REMARK  185  A    between atoms: _435  and  _436
REMARK  186  A    between atoms: _439  and  _441
REMARK  187  A    between atoms: _441  and  _442
REMARK  188  A    between atoms: _444  and  _446
REMARK  189  A    between atoms: _446  and  _447
REMARK  190  A    between atoms: _449  and  _451
REMARK  191  A    between atoms: _451  and  _452
REMARK  192  A    between atoms: _451  and  _454
REMARK  193  A    between atoms: _454  and  _455
REMARK  194  A    between atoms: _458  and  _460
REMARK  195  A    between atoms: _460  and  _461
REMARK  196  A    between atoms: _463  and  _465
REMARK  197  A    between atoms: _465  and  _466
REMARK  198  A    between atoms: _468  and  _470
REMARK  199  A    between atoms: _470  and  _471
REMARK  200  A    between atoms: _470  and  _473
REMARK  201  A    between atoms: _473  and  _474
REMARK  202  A    between atoms: _480  and  _482
REMARK  203  A    between atoms: _482  and  _483
REMARK  204  A    between atoms: _482  and  _485
REMARK  205  A    between atoms: _485  and  _486
REMARK  206  A    between atoms: _489  and  _491
REMARK  207  A    between atoms: _491  and  _492
REMARK  208  A    between atoms: _491  and  _494
REMARK  209  A    between atoms: _497  and  _499
REMARK  210  A    between atoms: _499  and  _500
REMARK  211  A    between atoms: _499  and  _502
REMARK  212  A    between atoms: _502  and  _503
REMARK  213  A    between atoms: _506  and  _508
REMARK  214  A    between atoms: _508  and  _509
REMARK  215  A    between atoms: _508  and  _511
REMARK  216  A    between atoms: _511  and  _512
REMARK  217  A    between atoms: _516  and  _517
REMARK  218  A    between atoms: _522  and  _524
REMARK  219  A    between atoms: _524  and  _525
REMARK  220  A    between atoms: _524  and  _527
REMARK  221  A    between atoms: _530  and  _532
REMARK  222  A    between atoms: _532  and  _533
REMARK  223  A    between atoms: _532  and  _535
REMARK  224  A    between atoms: _535  and  _536
REMARK  225  A    between atoms: _541  and  _543
REMARK  226  A    between atoms: _543  and  _544
REMARK  227  A    between atoms: _543  and  _546
REMARK  228  A    between atoms: _546  and  _547
REMARK  229  A    between atoms: _550  and  _552
REMARK  230  A    between atoms: _552  and  _553
REMARK  231  A    between atoms: _552  and  _555
REMARK  232  A    between atoms: _555  and  _556
REMARK  233  A    between atoms: _559  and  _561
REMARK  234  A    between atoms: _561  and  _562
REMARK  235  A    between atoms: _564  and  _566
REMARK  236  A    between atoms: _566  and  _567
REMARK  237  A    between atoms: _566  and  _569
REMARK  238  A    between atoms: _569  and  _570
REMARK  239  A    between atoms: _570  and  _571
REMARK  240  A    between atoms: _571  and  _572
REMARK                            x       y       z     vdW  Elec       q    Type
REMARK                         _______ _______ _______ _____ _____    ______ ____
ROOT
ATOM      1  CA  LEU A   1       8.375  30.832  16.793  0.00  0.00    +0.133 C 
ENDROOT
BRANCH   1   2
ATOM      2  N   LEU A   1       9.149  31.996  16.397  0.00  0.00    -0.239 NA
ATOM      3  H   LEU A   1       9.813  31.918  15.600  0.00  0.00    +0.142 HD
ENDBRANCH   1   2
BRANCH   1   4
ATOM      4  C   LEU A   1       9.281  29.929  17.620  0.00  0.00    +0.224 C 
ATOM      5  O   LEU A   1      10.475  29.813  17.346  0.00  0.00    -0.287 OA
ENDBRANCH   1   4
BRANCH   1   6
ATOM      6  CB  LEU A   1       7.864  30.076  15.556  0.00  0.00    +0.025 C 
BRANCH   6   7
ATOM      7  CG  LEU A   1       7.135  30.905  14.486  0.00  0.00    +0.002 C 
ATOM      8  CD2 LEU A   1       5.936  31.619  15.099  0.00  0.00    +0.000 C 
ATOM      9  CD1 LEU A   1       6.690  29.994  13.345  0.00  0.00    +0.000 C 
ENDBRANCH   6   7
ENDBRANCH   1   6
TORSDOF 4
REMARK  Name = ../refined-set-2016/1ebw/1ebw_pocket.pdb
REMARK  240 active torsions:
REMARK  status: ('A' for Active; 'I' for Inactive)
REMARK    1  A    between atoms: _1  and  _3
REMARK    2  A    between atoms: _3  and  _4
REMARK    3  A    between atoms: _3  and  _6
REMARK    4  A    between atoms: _6  and  _7
REMARK    5  A    between atoms: _7  and  _8
REMARK    6  A    between atoms: _8  and  _9
REMARK    7  A    between atoms: _18  and  _20
REMARK    8  A    between atoms: _20  and  _21
REMARK    9  A    between atoms: _20  and  _23
REMARK   10  A    between atoms: _23  and  _24
REMARK   11  A    between atoms: _27  and  _29
REMARK   12  A    between atoms: _29  and  _30
REMARK   13  A    between atoms: _29  and  _32
REMARK   14  A    between atoms: _32  and  _33
REMARK   15  A    between atoms: _36  and  _38
REMARK   16  A    between atoms: _38  and  _39
REMARK   17  A    between atoms: _38  and  _41
REMARK   18  A    between atoms: _41  and  _42
REMARK   19  A    between atoms: _45  and  _47
REMARK   20  A    between atoms: _47  and  _48
REMARK   21  A    between atoms: _47  and  _50
REMARK   22  A    between atoms: _50  and  _51
REMARK   23  A    between atoms: _54  and  _56
REMARK   24  A    between atoms: _56  and  _57
REMARK   25  A    between atoms: _56  and  _59
REMARK   26  A    between atoms: _59  and  _60
REMARK   27  A    between atoms: _63  and  _65
REMARK   28  A    between atoms: _65  and  _66
REMARK   29  A    between atoms: _68  and  _70
REMARK   30  A    between atoms: _70  and  _71
REMARK   31  A    between atoms: _74  and  _76
REMARK   32  A    between atoms: _76  and  _77
REMARK   33  A    between atoms: _76  and  _79
REMARK   34  A    between atoms: _79  and  _80
REMARK   35  A    between atoms: _83  and  _85
REMARK   36  A    between atoms: _85  and  _86
REMARK   37  A    between atoms: _85  and  _88
REMARK   38  A    between atoms: _88  and  _89
REMARK   39  A    between atoms: _92  and  _94
REMARK   40  A    between atoms: _94  and  _95
REMARK   41  A    between atoms: _94  and  _97
REMARK   42  A    between atoms: _97  and  _98
REMARK   43  A    between atoms: _101  and  _103
REMARK   44  A    between atoms: _103  and  _104
REMARK   45  A    between atoms: _103  and  _106
REMARK   46  A    between atoms: _109  and  _111
REMARK   47  A    between atoms: _111  and  _112
REMARK   48  A    between atoms: _111  and  _114
REMARK   49  A    between atoms: _114  and  _115
REMARK   50  A    between atoms: _118  and  _120
REMARK   51  A    between atoms: _120  and  _121
REMARK   52  A    between atoms: _120  and  _123
REMARK   53  A    between atoms: _123  and  _124
REMARK   54  A    between atoms: _124  and  _125
REMARK   55  A    between atoms: _125  and  _126
REMARK   56  A    between atoms: _126  and  _127
REMARK   57  A    between atoms: _131  and  _133
REMARK   58  A    between atoms: _133  and  _134
REMARK   59  A    between atoms: _133  and  _136
REMARK   60  A    between atoms: _136  and  _137
REMARK   61  A    between atoms: _137  and  _138
REMARK   62  A    between atoms: _140  and  _142
REMARK   63  A    between atoms: _142  and  _143
REMARK   64  A    between atoms: _142  and  _145
REMARK   65  A    between atoms: _145  and  _146
REMARK   66  A    between atoms: _149  and  _151
REMARK   67  A    between atoms: _151  and  _152
REMARK   68  A    between atoms: _154  and  _156
REMARK   69  A    between atoms: _156  and  _157
REMARK   70  A    between atoms: _159  and  _161
REMARK   71  A    between atoms: _161  and  _162
REMARK   72  A    between atoms: _161  and  _164
REMARK   73  A    between atoms: _164  and  _165
REMARK   74  A    between atoms: _168  and  _170
REMARK   75  A    between atoms: _170  and  _171
REMARK   76  A    between atoms: _173  and  _175
REMARK   77  A    between atoms: _175  and  _176
REMARK   78  A    between atoms: _178  and  _180
REMARK   79  A    between atoms: _180  and  _181
REMARK   80  A    between atoms: _180  and  _183
REMARK   81  A    between atoms: _183  and  _184
REMARK   82  A    between atoms: _190  and  _192
REMARK   83  A    between atoms: _192  and  _193
REMARK   84  A    between atoms: _192  and  _195
REMARK   85  A    between atoms: _195  and  _196
REMARK   86  A    between atoms: _199  and  _201
REMARK   87  A    between atoms: _201  and  _202
REMARK   88  A    between atoms: _201  and  _204
REMARK   89  A    between atoms: _207  and  _209
REMARK   90  A    between atoms: _209  and  _210
REMARK   91  A    between atoms: _209  and  _212
REMARK   92  A    between atoms: _212  and  _213
REMARK   93  A    between atoms: _216  and  _218
REMARK   94  A    between atoms: _218  and  _219
REMARK   95  A    between atoms: _218  and  _221
REMARK   96  A    between atoms: _221  and  _222
REMARK   97  A    between atoms: _226  and  _227
REMARK   98  A    between atoms: _232  and  _234
REMARK   99  A    between atoms: _234  and  _235
REMARK  100  A    between atoms: _234  and  _237
REMARK  101  A    between atoms: _240  and  _242
REMARK  102  A    between atoms: _242  and  _243
REMARK  103  A    between atoms: _242  and  _245
REMARK  104  A    between atoms: _245  and  _246
REMARK  105  A    between atoms: _251  and  _253
REMARK  106  A    between atoms: _253  and  _254
REMARK  107  A    between atoms: _253  and  _256
REMARK  108  A    between atoms: _256  and  _257
REMARK  109  A    between atoms: _260  and  _262
REMARK  110  A    between atoms: _262  and  _263
REMARK  111  A    between atoms: _262  and  _265
REMARK  112  A    between atoms: _265  and  _266
REMARK  113  A    between atoms: _269  and  _271
REMARK  114  A    between atoms: _271  and  _272
REMARK  115  A    between atoms: _274  and  _276
REMARK  116  A    between atoms: _276  and  _277
REMARK  117  A    between atoms: _276  and  _279
REMARK  118  A    between atoms: _279  and  _280
REMARK  119  A    between atoms: _280  and  _281
REMARK  120  A    between atoms: _281  and  _282
REMARK  121  A    between atoms: _291  and  _293
REMARK  122  A    between atoms: _293  and  _294
REMARK  123  A    between atoms: _293  and  _296
REMARK  124  A    between atoms: _296  and  _297
REMARK  125  A    between atoms: _297  and  _298
REMARK  126  A    between atoms: _298  and  _299
REMARK  127  A    between atoms: _308  and  _310
REMARK  128  A    between atoms: _310  and  _311
REMARK  129  A    between atoms: _310  and  _313
REMARK  130  A    between atoms: _313  and  _314
REMARK  131  A    between atoms: _317  and  _319
REMARK  132  A    between atoms: _319  and  _320
REMARK  133  A    between atoms: _319  and  _322
REMARK  134  A    between atoms: _322  and  _323
REMARK  135  A    between atoms: _326  and  _328
REMARK  136  A    between atoms: _328  and  _329
REMARK  137  A    between atoms: _328  and  _331
REMARK  138  A    between atoms: _331  and  _332
REMARK  139  A    between atoms: _335  and  _337
REMARK  140  A    between atoms: _337  and  _338
REMARK  141  A    between atoms: _337  and  _340
REMARK  142  A    between atoms: _340  and  _341
REMARK  143  A    between atoms: _344  and  _346
REMARK  144  A    between atoms: _346  and  _347
REMARK  145  A    between atoms: _346  and  _349
REMARK  146  A    between atoms: _349  and  _350
REMARK  147  A    between atoms: _353  and  _355
REMARK  148  A    between atoms: _355  and  _356
REMARK  149  A    between atoms: _358  and  _360
REMARK  150  A    between atoms: _360  and  _361
REMARK  151  A    between atoms: _364  and  _366
REMARK  152  A    between atoms: _366  and  _367
REMARK  153  A    between atoms: _366  and  _369
REMARK  154  A    between atoms: _369  and  _370
REMARK  155  A    between atoms: _373  and  _375
REMARK  156  A    between atoms: _375  and  _376
REMARK  157  A    between atoms: _375  and  _378
REMARK  158  A    between atoms: _378  and  _379
REMARK  159  A    between atoms: _382  and  _384
REMARK  160  A    between atoms: _384  and  _385
REMARK  161  A    between atoms: _384  and  _387
REMARK  162  A    between atoms: _387  and  _388
REMARK  163  A    between atoms: _391  and  _393
REMARK  164  A    between atoms: _393  and  _394
REMARK  165  A    between atoms: _393  and  _396
REMARK  166  A    between atoms: _399  and  _401
REMARK  167  A    between atoms: _401  and  _402
REMARK  168  A    between atoms: _401  and  _404
REMARK  169  A    between atoms: _404  and  _405
REMARK  170  A    between atoms: _408  and  _410
REMARK  171  A    between atoms: _410  and  _411
REMARK  172  A    between atoms: _410  and  _413
REMARK  173  A    between atoms: _413  and  _414
REMARK  174  A    between atoms: _414  and  _415
REMARK  175  A    between atoms: _415  and  _416
REMARK  176  A    between atoms: _416  and  _417
REMARK  177  A    between atoms: _421  and  _423
REMARK  178  A    between atoms: _423  and  _424
REMARK  179  A    between atoms: _423  and  _426
REMARK  180  A    between atoms: _426  and  _427
REMARK  181  A    between atoms: _427  and  _428
REMARK  182  A    between atoms: _430  and  _432
REMARK  183  A    between atoms: _432  and  _433
REMARK  184  A    between atoms: _432  and  _435
REMARK  185  A    between atoms: _435  and  _436
REMARK  186  A    between atoms: _439  and  _441
REMARK  187  A    between atoms: _441  and  _442
REMARK  188  A    between atoms: _444  and  _446
REMARK  189  A    between atoms: _446  and  _447
REMARK  190  A    between atoms: _449  and  _451
REMARK  191  A    between atoms: _451  and  _452
REMARK  192  A    between atoms: _451  and  _454
REMARK  193  A    between atoms: _454  and  _455
REMARK  194  A    between atoms: _458  and  _460
REMARK  195  A    between atoms: _460  and  _461
REMARK  196  A    between atoms: _463  and  _465
REMARK  197  A    between atoms: _465  and  _466
REMARK  198  A    between atoms: _468  and  _470
REMARK  199  A    between atoms: _470  and  _471
REMARK  200  A    between atoms: _470  and  _473
REMARK  201  A    between atoms: _473  and  _474
REMARK  202  A    between atoms: _480  and  _482
REMARK  203  A    between atoms: _482  and  _483
REMARK  204  A    between atoms: _482  and  _485
REMARK  205  A    between atoms: _485  and  _486
REMARK  206  A    between atoms: _489  and  _491
REMARK  207  A    between atoms: _491  and  _492
REMARK  208  A    between atoms: _491  and  _494
REMARK  209  A    between atoms: _497  and  _499
REMARK  210  A    between atoms: _499  and  _500
REMARK  211  A    between atoms: _499  and  _502
REMARK  212  A    between atoms: _502  and  _503
REMARK  213  A    between atoms: _506  and  _508
REMARK  214  A    between atoms: _508  and  _509
REMARK  215  A    between atoms: _508  and  _511
REMARK  216  A    between atoms: _511  and  _512
REMARK  217  A    between atoms: _516  and  _517
REMARK  218  A    between atoms: _522  and  _524
REMARK  219  A    between atoms: _524  and  _525
REMARK  220  A    between atoms: _524  and  _527
REMARK  221  A    between atoms: _530  and  _532
REMARK  222  A    between atoms: _532  and  _533
REMARK  223  A    between atoms: _532  and  _535
REMARK  224  A    between atoms: _535  and  _536
REMARK  225  A    between atoms: _541  and  _543
REMARK  226  A    between atoms: _543  and  _544
REMARK  227  A    between atoms: _543  and  _546
REMARK  228  A    between atoms: _546  and  _547
REMARK  229  A    between atoms: _550  and  _552
REMARK  230  A    between atoms: _552  and  _553
REMARK  231  A    between atoms: _552  and  _555
REMARK  232  A    between atoms: _555  and  _556
REMARK  233  A    between atoms: _559  and  _561
REMARK  234  A    between atoms: _561  and  _562
REMARK  235  A    between atoms: _564  and  _566
REMARK  236  A    between atoms: _566  and  _567
REMARK  237  A    between atoms: _566  and  _569
REMARK  238  A    between atoms: _569  and  _570
REMARK  239  A    between atoms: _570  and  _571
REMARK  240  A    between atoms: _571  and  _572
REMARK                            x       y       z     vdW  Elec       q    Type
REMARK                         _______ _______ _______ _____ _____    ______ ____
ROOT
ATOM      1  CA  ILE A   5      16.329  28.530  11.997  0.00  0.00    +0.149 C 
ENDROOT
BRANCH   1   3
ATOM      2  C   ASN A   4      17.549  27.440  13.789  0.00  0.00    +0.241 C 
ATOM      3  N   ILE A   5      16.436  28.023  13.359  0.00  0.00    -0.297 N 
ATOM      4  H   ILE A   5      15.627  28.119  14.005  0.00  0.00    +0.150 HD
ATOM      5  O   ASN A   4      18.566  27.346  13.101  0.00  0.00    -0.273 OA
BRANCH   2   6
ATOM      6  CA  ASN A   4      17.517  26.890  15.210  0.00  0.00    +0.158 C 
BRANCH   6   8
ATOM      7  C   VAL A   3      17.296  24.529  14.663  0.00  0.00    +0.241 C 
ATOM      8  N   ASN A   4      18.024  25.517  15.183  0.00  0.00    -0.297 N 
ATOM      9  H   ASN A   4      18.965  25.310  15.575  0.00  0.00    +0.150 HD
ATOM     10  O   VAL A   3      16.167  24.700  14.206  0.00  0.00    -0.273 OA
BRANCH   7  11
ATOM     11  CA  VAL A   3      17.916  23.132  14.667  0.00  0.00    +0.149 C 
BRANCH  11  14
ATOM     12  C   PRO A   2      17.107  20.986  15.472  0.00  0.00    +0.241 C 
ATOM     13  O   PRO A   2      18.215  20.694  15.912  0.00  0.00    -0.273 OA
ATOM     14  N   VAL A   3      16.864  22.140  14.860  0.00  0.00    -0.297 N 
ATOM     15  H   VAL A   3      15.905  22.340  14.512  0.00  0.00    +0.150 HD
BRANCH  12  19
ATOM     16  C   THR A   1      14.065  21.464  16.219  0.00  0.00    +0.244 C 
ATOM     17  O   THR A   1      14.617  21.745  17.284  0.00  0.00    -0.273 OA
ATOM     18  N   PRO A   2      14.624  20.620  15.336  0.00  0.00    -0.272 N 
ATOM     19  CA  PRO A   2      15.931  20.019  15.619  0.00  0.00    +0.152 C 
ATOM     20  CB  PRO A   2      15.998  18.862  14.624  0.00  0.00    +0.031 C 
ATOM     21  CG  PRO A   2      15.254  19.403  13.455  0.00  0.00    +0.024 C 
ATOM     22  CD  PRO A   2      14.053  20.075  14.092  0.00  0.00    +0.094 C 
BRANCH  16  23
ATOM     23  CA  THR A   1      12.699  22.059  15.871  0.00  0.00    +0.172 C 
BRANCH  23  24
ATOM     24  CB  THR A   1      12.888  23.478  15.271  0.00  0.00    +0.135 C 
ATOM     25  CG2 THR A   1      13.549  24.412  16.282  0.00  0.00    +0.034 C 
BRANCH  24  26
ATOM     26  OG1 THR A   1      13.703  23.393  14.093  0.00  0.00    -0.383 OA
ATOM     27  HG1 THR A   1      14.586  23.014  14.331  0.00  0.00    +0.210 HD
ENDBRANCH  24  26
ENDBRANCH  23  24
BRANCH  23  28
ATOM     28  N   THR A   1      11.913  22.094  17.103  0.00  0.00    -0.236 NA
ATOM     29  H   THR A   1      11.901  22.958  17.682  0.00  0.00    +0.142 HD
ENDBRANCH  23  28
ENDBRANCH  16  23
ENDBRANCH  12  19
ENDBRANCH  11  14
BRANCH  11  30
ATOM     30  CB  VAL A   3      18.654  22.899  13.327  0.00  0.00    +0.027 C 
ATOM     31  CG2 VAL A   3      19.824  23.858  13.201  0.00  0.00    +0.002 C 
ATOM     32  CG1 VAL A   3      17.698  23.084  12.166  0.00  0.00    +0.002 C 
ENDBRANCH  11  30
ENDBRANCH   7  11
ENDBRANCH   6   8
BRANCH   6  33
ATOM     33  CB  ASN A   4      18.359  27.763  16.145  0.00  0.00    +0.114 C 
BRANCH  33  34
ATOM     34  CG  ASN A   4      18.251  27.327  17.599  0.00  0.00    +0.222 C 
ATOM     35  ND2 ASN A   4      19.388  27.153  18.251  0.00  0.00    -0.329 N 
ATOM     36 HD21 ASN A   4      19.376  26.860  19.249  0.00  0.00    +0.145 HD
ATOM     37 HD22 ASN A   4      20.295  27.309  17.766  0.00  0.00    +0.145 HD
ATOM     38  OD1 ASN A   4      17.153  27.156  18.126  0.00  0.00    -0.275 OA
ENDBRANCH  33  34
ENDBRANCH   6  33
ENDBRANCH   2   6
ENDBRANCH   1   3
BRANCH   1  39
ATOM     39  C   ILE A   5      16.004  30.015  11.884  0.00  0.00    +0.241 C 
ATOM     40  O   ILE A   5      15.035  30.491  12.464  0.00  0.00    -0.273 OA
ATOM     41  N   ILE A   6      16.826  30.744  11.138  0.00  0.00    -0.297 N 
ATOM     42  H   ILE A   6      17.660  30.297  10.707  0.00  0.00    +0.150 HD
BRANCH  41  43
ATOM     43  CA  ILE A   6      16.575  32.162  10.915  0.00  0.00    +0.149 C 
BRANCH  43  44
ATOM     44  C   ILE A   6      15.950  32.218   9.527  0.00  0.00    +0.241 C 
ATOM     45  N   GLY A   7      14.664  32.557   9.478  0.00  0.00    -0.295 N 
ATOM     46  H   GLY A   7      14.163  32.783  10.361  0.00  0.00    +0.150 HD
ATOM     47  O   ILE A   6      16.621  31.946   8.531  0.00  0.00    -0.273 OA
BRANCH  45  48
ATOM     48  CA  GLY A   7      13.948  32.617   8.219  0.00  0.00    +0.176 C 
BRANCH  48  49
ATOM     49  C   GLY A   7      13.916  33.979   7.550  0.00  0.00    +0.243 C 
ATOM     50  O   GLY A   7      14.482  34.944   8.051  0.00  0.00    -0.273 OA
ATOM     51  N   ARG A   8      13.234  34.046   6.414  0.00  0.00    -0.298 N 
ATOM     52  H   ARG A   8      12.752  33.191   6.069  0.00  0.00    +0.150 HD
BRANCH  51  53
ATOM     53  CA  ARG A   8      13.134  35.270   5.632  0.00  0.00    +0.137 C 
BRANCH  53  54
ATOM     54  C   ARG A   8      12.583  36.495   6.355  0.00  0.00    +0.227 C 
ATOM     55  O   ARG A   8      12.955  37.620   6.021  0.00  0.00    -0.286 OA
ENDBRANCH  53  54
BRANCH  53  56
ATOM     56  CB  ARG A   8      12.309  35.016   4.362  0.00  0.00    +0.031 C 
BRANCH  56  57
ATOM     57  CG  ARG A   8      12.999  34.080   3.366  0.00  0.00    +0.045 C 
BRANCH  57  58
ATOM     58  CD  ARG A   8      12.287  34.033   2.007  0.00  0.00    +0.174 C 
BRANCH  58  59
ATOM     59  NE  ARG A   8      10.903  33.585   2.121  0.00  0.00    -0.265 N 
ATOM     60  HE  ARG A   8      10.730  32.561   2.170  0.00  0.00    +0.259 HD
ATOM     61  CZ  ARG A   8       9.846  34.393   2.167  0.00  0.00    +0.342 C 
ATOM     62  NH2 ARG A   8       8.628  33.872   2.280  0.00  0.00    -0.292 N 
ATOM     63 HH21 ARG A   8       8.506  32.840   2.332  0.00  0.00    +0.255 HD
ATOM     64 HH22 ARG A   8       7.797  34.496   2.317  0.00  0.00    +0.255 HD
ATOM     65  NH1 ARG A   8       9.998  35.714   2.104  0.00  0.00    -0.292 N 
ATOM     66 HH11 ARG A   8       9.165  36.336   2.141  0.00  0.00    +0.255 HD
ATOM     67 HH12 ARG A   8      10.950  36.124   2.018  0.00  0.00    +0.255 HD
ENDBRANCH  58  59
ENDBRANCH  57  58
ENDBRANCH  56  57
ENDBRANCH  53  56
ENDBRANCH  51  53
ENDBRANCH  48  49
ENDBRANCH  45  48
ENDBRANCH  43  44
BRANCH  43  68
ATOM     68  CB  ILE A   6      17.868  33.000  10.909  0.00  0.00    +0.027 C 
ATOM     69  CG2 ILE A   6      17.540  34.456  10.558  0.00  0.00    +0.002 C 
BRANCH  68  70
ATOM     70  CG1 ILE A   6      18.561  32.906  12.271  0.00  0.00    +0.002 C 
ATOM     71  CD1 ILE A   6      17.700  33.335  13.446  0.00  0.00    +0.000 C 
ENDBRANCH  68  70
ENDBRANCH  43  68
ENDBRANCH  41  43
ENDBRANCH   1  39
BRANCH   1  72
ATOM     72  CB  ILE A   5      15.244  27.735  11.228  0.00  0.00    +0.027 C 
ATOM     73  CG2 ILE A   5      15.012  28.340   9.844  0.00  0.00    +0.002 C 
BRANCH  72  74
ATOM     74  CG1 ILE A   5      15.665  26.268  11.111  0.00  0.00    +0.002 C 
ATOM     75  CD1 ILE A   5      14.535  25.356  10.720  0.00  0.00    +0.000 C 
ENDBRANCH  72  74
ENDBRANCH   1  72
TORSDOF 28
REMARK  Name = ../refined-set-2016/1ebw/1ebw_pocket.pdb
REMARK  240 active torsions:
REMARK  status: ('A' for Active; 'I' for Inactive)
REMARK    1  A    between atoms: _1  and  _3
REMARK    2  A    between atoms: _3  and  _4
REMARK    3  A    between atoms: _3  and  _6
REMARK    4  A    between atoms: _6  and  _7
REMARK    5  A    between atoms: _7  and  _8
REMARK    6  A    between atoms: _8  and  _9
REMARK    7  A    between atoms: _18  and  _20
REMARK    8  A    between atoms: _20  and  _21
REMARK    9  A    between atoms: _20  and  _23
REMARK   10  A    between atoms: _23  and  _24
REMARK   11  A    between atoms: _27  and  _29
REMARK   12  A    between atoms: _29  and  _30
REMARK   13  A    between atoms: _29  and  _32
REMARK   14  A    between atoms: _32  and  _33
REMARK   15  A    between atoms: _36  and  _38
REMARK   16  A    between atoms: _38  and  _39
REMARK   17  A    between atoms: _38  and  _41
REMARK   18  A    between atoms: _41  and  _42
REMARK   19  A    between atoms: _45  and  _47
REMARK   20  A    between atoms: _47  and  _48
REMARK   21  A    between atoms: _47  and  _50
REMARK   22  A    between atoms: _50  and  _51
REMARK   23  A    between atoms: _54  and  _56
REMARK   24  A    between atoms: _56  and  _57
REMARK   25  A    between atoms: _56  and  _59
REMARK   26  A    between atoms: _59  and  _60
REMARK   27  A    between atoms: _63  and  _65
REMARK   28  A    between atoms: _65  and  _66
REMARK   29  A    between atoms: _68  and  _70
REMARK   30  A    between atoms: _70  and  _71
REMARK   31  A    between atoms: _74  and  _76
REMARK   32  A    between atoms: _76  and  _77
REMARK   33  A    between atoms: _76  and  _79
REMARK   34  A    between atoms: _79  and  _80
REMARK   35  A    between atoms: _83  and  _85
REMARK   36  A    between atoms: _85  and  _86
REMARK   37  A    between atoms: _85  and  _88
REMARK   38  A    between atoms: _88  and  _89
REMARK   39  A    between atoms: _92  and  _94
REMARK   40  A    between atoms: _94  and  _95
REMARK   41  A    between atoms: _94  and  _97
REMARK   42  A    between atoms: _97  and  _98
REMARK   43  A    between atoms: _101  and  _103
REMARK   44  A    between atoms: _103  and  _104
REMARK   45  A    between atoms: _103  and  _106
REMARK   46  A    between atoms: _109  and  _111
REMARK   47  A    between atoms: _111  and  _112
REMARK   48  A    between atoms: _111  and  _114
REMARK   49  A    between atoms: _114  and  _115
REMARK   50  A    between atoms: _118  and  _120
REMARK   51  A    between atoms: _120  and  _121
REMARK   52  A    between atoms: _120  and  _123
REMARK   53  A    between atoms: _123  and  _124
REMARK   54  A    between atoms: _124  and  _125
REMARK   55  A    between atoms: _125  and  _126
REMARK   56  A    between atoms: _126  and  _127
REMARK   57  A    between atoms: _131  and  _133
REMARK   58  A    between atoms: _133  and  _134
REMARK   59  A    between atoms: _133  and  _136
REMARK   60  A    between atoms: _136  and  _137
REMARK   61  A    between atoms: _137  and  _138
REMARK   62  A    between atoms: _140  and  _142
REMARK   63  A    between atoms: _142  and  _143
REMARK   64  A    between atoms: _142  and  _145
REMARK   65  A    between atoms: _145  and  _146
REMARK   66  A    between atoms: _149  and  _151
REMARK   67  A    between atoms: _151  and  _152
REMARK   68  A    between atoms: _154  and  _156
REMARK   69  A    between atoms: _156  and  _157
REMARK   70  A    between atoms: _159  and  _161
REMARK   71  A    between atoms: _161  and  _162
REMARK   72  A    between atoms: _161  and  _164
REMARK   73  A    between atoms: _164  and  _165
REMARK   74  A    between atoms: _168  and  _170
REMARK   75  A    between atoms: _170  and  _171
REMARK   76  A    between atoms: _173  and  _175
REMARK   77  A    between atoms: _175  and  _176
REMARK   78  A    between atoms: _178  and  _180
REMARK   79  A    between atoms: _180  and  _181
REMARK   80  A    between atoms: _180  and  _183
REMARK   81  A    between atoms: _183  and  _184
REMARK   82  A    between atoms: _190  and  _192
REMARK   83  A    between atoms: _192  and  _193
REMARK   84  A    between atoms: _192  and  _195
REMARK   85  A    between atoms: _195  and  _196
REMARK   86  A    between atoms: _199  and  _201
REMARK   87  A    between atoms: _201  and  _202
REMARK   88  A    between atoms: _201  and  _204
REMARK   89  A    between atoms: _207  and  _209
REMARK   90  A    between atoms: _209  and  _210
REMARK   91  A    between atoms: _209  and  _212
REMARK   92  A    between atoms: _212  and  _213
REMARK   93  A    between atoms: _216  and  _218
REMARK   94  A    between atoms: _218  and  _219
REMARK   95  A    between atoms: _218  and  _221
REMARK   96  A    between atoms: _221  and  _222
REMARK   97  A    between atoms: _226  and  _227
REMARK   98  A    between atoms: _232  and  _234
REMARK   99  A    between atoms: _234  and  _235
REMARK  100  A    between atoms: _234  and  _237
REMARK  101  A    between atoms: _240  and  _242
REMARK  102  A    between atoms: _242  and  _243
REMARK  103  A    between atoms: _242  and  _245
REMARK  104  A    between atoms: _245  and  _246
REMARK  105  A    between atoms: _251  and  _253
REMARK  106  A    between atoms: _253  and  _254
REMARK  107  A    between atoms: _253  and  _256
REMARK  108  A    between atoms: _256  and  _257
REMARK  109  A    between atoms: _260  and  _262
REMARK  110  A    between atoms: _262  and  _263
REMARK  111  A    between atoms: _262  and  _265
REMARK  112  A    between atoms: _265  and  _266
REMARK  113  A    between atoms: _269  and  _271
REMARK  114  A    between atoms: _271  and  _272
REMARK  115  A    between atoms: _274  and  _276
REMARK  116  A    between atoms: _276  and  _277
REMARK  117  A    between atoms: _276  and  _279
REMARK  118  A    between atoms: _279  and  _280
REMARK  119  A    between atoms: _280  and  _281
REMARK  120  A    between atoms: _281  and  _282
REMARK  121  A    between atoms: _291  and  _293
REMARK  122  A    between atoms: _293  and  _294
REMARK  123  A    between atoms: _293  and  _296
REMARK  124  A    between atoms: _296  and  _297
REMARK  125  A    between atoms: _297  and  _298
REMARK  126  A    between atoms: _298  and  _299
REMARK  127  A    between atoms: _308  and  _310
REMARK  128  A    between atoms: _310  and  _311
REMARK  129  A    between atoms: _310  and  _313
REMARK  130  A    between atoms: _313  and  _314
REMARK  131  A    between atoms: _317  and  _319
REMARK  132  A    between atoms: _319  and  _320
REMARK  133  A    between atoms: _319  and  _322
REMARK  134  A    between atoms: _322  and  _323
REMARK  135  A    between atoms: _326  and  _328
REMARK  136  A    between atoms: _328  and  _329
REMARK  137  A    between atoms: _328  and  _331
REMARK  138  A    between atoms: _331  and  _332
REMARK  139  A    between atoms: _335  and  _337
REMARK  140  A    between atoms: _337  and  _338
REMARK  141  A    between atoms: _337  and  _340
REMARK  142  A    between atoms: _340  and  _341
REMARK  143  A    between atoms: _344  and  _346
REMARK  144  A    between atoms: _346  and  _347
REMARK  145  A    between atoms: _346  and  _349
REMARK  146  A    between atoms: _349  and  _350
REMARK  147  A    between atoms: _353  and  _355
REMARK  148  A    between atoms: _355  and  _356
REMARK  149  A    between atoms: _358  and  _360
REMARK  150  A    between atoms: _360  and  _361
REMARK  151  A    between atoms: _364  and  _366
REMARK  152  A    between atoms: _366  and  _367
REMARK  153  A    between atoms: _366  and  _369
REMARK  154  A    between atoms: _369  and  _370
REMARK  155  A    between atoms: _373  and  _375
REMARK  156  A    between atoms: _375  and  _376
REMARK  157  A    between atoms: _375  and  _378
REMARK  158  A    between atoms: _378  and  _379
REMARK  159  A    between atoms: _382  and  _384
REMARK  160  A    between atoms: _384  and  _385
REMARK  161  A    between atoms: _384  and  _387
REMARK  162  A    between atoms: _387  and  _388
REMARK  163  A    between atoms: _391  and  _393
REMARK  164  A    between atoms: _393  and  _394
REMARK  165  A    between atoms: _393  and  _396
REMARK  166  A    between atoms: _399  and  _401
REMARK  167  A    between atoms: _401  and  _402
REMARK  168  A    between atoms: _401  and  _404
REMARK  169  A    between atoms: _404  and  _405
REMARK  170  A    between atoms: _408  and  _410
REMARK  171  A    between atoms: _410  and  _411
REMARK  172  A    between atoms: _410  and  _413
REMARK  173  A    between atoms: _413  and  _414
REMARK  174  A    between atoms: _414  and  _415
REMARK  175  A    between atoms: _415  and  _416
REMARK  176  A    between atoms: _416  and  _417
REMARK  177  A    between atoms: _421  and  _423
REMARK  178  A    between atoms: _423  and  _424
REMARK  179  A    between atoms: _423  and  _426
REMARK  180  A    between atoms: _426  and  _427
REMARK  181  A    between atoms: _427  and  _428
REMARK  182  A    between atoms: _430  and  _432
REMARK  183  A    between atoms: _432  and  _433
REMARK  184  A    between atoms: _432  and  _435
REMARK  185  A    between atoms: _435  and  _436
REMARK  186  A    between atoms: _439  and  _441
REMARK  187  A    between atoms: _441  and  _442
REMARK  188  A    between atoms: _444  and  _446
REMARK  189  A    between atoms: _446  and  _447
REMARK  190  A    between atoms: _449  and  _451
REMARK  191  A    between atoms: _451  and  _452
REMARK  192  A    between atoms: _451  and  _454
REMARK  193  A    between atoms: _454  and  _455
REMARK  194  A    between atoms: _458  and  _460
REMARK  195  A    between atoms: _460  and  _461
REMARK  196  A    between atoms: _463  and  _465
REMARK  197  A    between atoms: _465  and  _466
REMARK  198  A    between atoms: _468  and  _470
REMARK  199  A    between atoms: _470  and  _471
REMARK  200  A    between atoms: _470  and  _473
REMARK  201  A    between atoms: _473  and  _474
REMARK  202  A    between atoms: _480  and  _482
REMARK  203  A    between atoms: _482  and  _483
REMARK  204  A    between atoms: _482  and  _485
REMARK  205  A    between atoms: _485  and  _486
REMARK  206  A    between atoms: _489  and  _491
REMARK  207  A    between atoms: _491  and  _492
REMARK  208  A    between atoms: _491  and  _494
REMARK  209  A    between atoms: _497  and  _499
REMARK  210  A    between atoms: _499  and  _500
REMARK  211  A    between atoms: _499  and  _502
REMARK  212  A    between atoms: _502  and  _503
REMARK  213  A    between atoms: _506  and  _508
REMARK  214  A    between atoms: _508  and  _509
REMARK  215  A    between atoms: _508  and  _511
REMARK  216  A    between atoms: _511  and  _512
REMARK  217  A    between atoms: _516  and  _517
REMARK  218  A    between atoms: _522  and  _524
REMARK  219  A    between atoms: _524  and  _525
REMARK  220  A    between atoms: _524  and  _527
REMARK  221  A    between atoms: _530  and  _532
REMARK  222  A    between atoms: _532  and  _533
REMARK  223  A    between atoms: _532  and  _535
REMARK  224  A    between atoms: _535  and  _536
REMARK  225  A    between atoms: _541  and  _543
REMARK  226  A    between atoms: _543  and  _544
REMARK  227  A    between atoms: _543  and  _546
REMARK  228  A    between atoms: _546  and  _547
REMARK  229  A    between atoms: _550  and  _552
REMARK  230  A    between atoms: _552  and  _553
REMARK  231  A    between atoms: _552  and  _555
REMARK  232  A    between atoms: _555  and  _556
REMARK  233  A    between atoms: _559  and  _561
REMARK  234  A    between atoms: _561  and  _562
REMARK  235  A    between atoms: _564  and  _566
REMARK  236  A    between atoms: _566  and  _567
REMARK  237  A    between atoms: _566  and  _569
REMARK  238  A    between atoms: _569  and  _570
REMARK  239  A    between atoms: _570  and  _571
REMARK  240  A    between atoms: _571  and  _572
REMARK                            x       y       z     vdW  Elec       q    Type
REMARK                         _______ _______ _______ _____ _____    ______ ____
ROOT
ATOM      1  NE  ARG A   1       6.903  30.233   0.572  0.00  0.00    -0.265 N 
ATOM      2  HE  ARG A   1       7.074  30.825   1.410  0.00  0.00    +0.259 HD
ATOM      3  CZ  ARG A   1       6.014  29.252   0.677  0.00  0.00    +0.342 C 
ATOM      4  NH2 ARG A   1       5.372  29.061   1.825  0.00  0.00    -0.292 N 
ATOM      5 HH21 ARG A   1       5.566  29.679   2.639  0.00  0.00    +0.255 HD
ATOM      6 HH22 ARG A   1       4.675  28.293   1.910  0.00  0.00    +0.255 HD
ATOM      7  NH1 ARG A   1       5.757  28.469  -0.364  0.00  0.00    -0.292 N 
ATOM      8 HH11 ARG A   1       5.060  27.702  -0.278  0.00  0.00    +0.255 HD
ATOM      9 HH12 ARG A   1       6.253  28.623  -1.265  0.00  0.00    +0.255 HD
ENDROOT
BRANCH   1  10
ATOM     10  CD  ARG A   1       7.655  30.536  -0.639  0.00  0.00    +0.174 C 
BRANCH  10  11
ATOM     11  CG  ARG A   1       8.523  31.774  -0.450  0.00  0.00    +0.045 C 
BRANCH  11  12
ATOM     12  CB  ARG A   1       9.334  32.065  -1.692  0.00  0.00    +0.029 C 
BRANCH  12  13
ATOM     13  CA  ARG A   1      10.284  33.259  -1.550  0.00  0.00    +0.133 C 
BRANCH  13  14
ATOM     14  N   ARG A   1       9.542  34.516  -1.463  0.00  0.00    -0.239 NA
ATOM     15  H   ARG A   1       8.505  34.514  -1.543  0.00  0.00    +0.142 HD
ENDBRANCH  13  14
BRANCH  13  16
ATOM     16  C   ARG A   1      11.193  33.321  -2.773  0.00  0.00    +0.224 C 
ATOM     17  O   ARG A   1      10.788  33.795  -3.838  0.00  0.00    -0.287 OA
ENDBRANCH  13  16
ENDBRANCH  12  13
ENDBRANCH  11  12
ENDBRANCH  10  11
ENDBRANCH   1  10
TORSDOF 6
REMARK  Name = ../refined-set-2016/1ebw/1ebw_pocket.pdb
REMARK  240 active torsions:
REMARK  status: ('A' for Active; 'I' for Inactive)
REMARK    1  A    between atoms: _1  and  _3
REMARK    2  A    between atoms: _3  and  _4
REMARK    3  A    between atoms: _3  and  _6
REMARK    4  A    between atoms: _6  and  _7
REMARK    5  A    between atoms: _7  and  _8
REMARK    6  A    between atoms: _8  and  _9
REMARK    7  A    between atoms: _18  and  _20
REMARK    8  A    between atoms: _20  and  _21
REMARK    9  A    between atoms: _20  and  _23
REMARK   10  A    between atoms: _23  and  _24
REMARK   11  A    between atoms: _27  and  _29
REMARK   12  A    between atoms: _29  and  _30
REMARK   13  A    between atoms: _29  and  _32
REMARK   14  A    between atoms: _32  and  _33
REMARK   15  A    between atoms: _36  and  _38
REMARK   16  A    between atoms: _38  and  _39
REMARK   17  A    between atoms: _38  and  _41
REMARK   18  A    between atoms: _41  and  _42
REMARK   19  A    between atoms: _45  and  _47
REMARK   20  A    between atoms: _47  and  _48
REMARK   21  A    between atoms: _47  and  _50
REMARK   22  A    between atoms: _50  and  _51
REMARK   23  A    between atoms: _54  and  _56
REMARK   24  A    between atoms: _56  and  _57
REMARK   25  A    between atoms: _56  and  _59
REMARK   26  A    between atoms: _59  and  _60
REMARK   27  A    between atoms: _63  and  _65
REMARK   28  A    between atoms: _65  and  _66
REMARK   29  A    between atoms: _68  and  _70
REMARK   30  A    between atoms: _70  and  _71
REMARK   31  A    between atoms: _74  and  _76
REMARK   32  A    between atoms: _76  and  _77
REMARK   33  A    between atoms: _76  and  _79
REMARK   34  A    between atoms: _79  and  _80
REMARK   35  A    between atoms: _83  and  _85
REMARK   36  A    between atoms: _85  and  _86
REMARK   37  A    between atoms: _85  and  _88
REMARK   38  A    between atoms: _88  and  _89
REMARK   39  A    between atoms: _92  and  _94
REMARK   40  A    between atoms: _94  and  _95
REMARK   41  A    between atoms: _94  and  _97
REMARK   42  A    between atoms: _97  and  _98
REMARK   43  A    between atoms: _101  and  _103
REMARK   44  A    between atoms: _103  and  _104
REMARK   45  A    between atoms: _103  and  _106
REMARK   46  A    between atoms: _109  and  _111
REMARK   47  A    between atoms: _111  and  _112
REMARK   48  A    between atoms: _111  and  _114
REMARK   49  A    between atoms: _114  and  _115
REMARK   50  A    between atoms: _118  and  _120
REMARK   51  A    between atoms: _120  and  _121
REMARK   52  A    between atoms: _120  and  _123
REMARK   53  A    between atoms: _123  and  _124
REMARK   54  A    between atoms: _124  and  _125
REMARK   55  A    between atoms: _125  and  _126
REMARK   56  A    between atoms: _126  and  _127
REMARK   57  A    between atoms: _131  and  _133
REMARK   58  A    between atoms: _133  and  _134
REMARK   59  A    between atoms: _133  and  _136
REMARK   60  A    between atoms: _136  and  _137
REMARK   61  A    between atoms: _137  and  _138
REMARK   62  A    between atoms: _140  and  _142
REMARK   63  A    between atoms: _142  and  _143
REMARK   64  A    between atoms: _142  and  _145
REMARK   65  A    between atoms: _145  and  _146
REMARK   66  A    between atoms: _149  and  _151
REMARK   67  A    between atoms: _151  and  _152
REMARK   68  A    between atoms: _154  and  _156
REMARK   69  A    between atoms: _156  and  _157
REMARK   70  A    between atoms: _159  and  _161
REMARK   71  A    between atoms: _161  and  _162
REMARK   72  A    between atoms: _161  and  _164
REMARK   73  A    between atoms: _164  and  _165
REMARK   74  A    between atoms: _168  and  _170
REMARK   75  A    between atoms: _170  and  _171
REMARK   76  A    between atoms: _173  and  _175
REMARK   77  A    between atoms: _175  and  _176
REMARK   78  A    between atoms: _178  and  _180
REMARK   79  A    between atoms: _180  and  _181
REMARK   80  A    between atoms: _180  and  _183
REMARK   81  A    between atoms: _183  and  _184
REMARK   82  A    between atoms: _190  and  _192
REMARK   83  A    between atoms: _192  and  _193
REMARK   84  A    between atoms: _192  and  _195
REMARK   85  A    between atoms: _195  and  _196
REMARK   86  A    between atoms: _199  and  _201
REMARK   87  A    between atoms: _201  and  _202
REMARK   88  A    between atoms: _201  and  _204
REMARK   89  A    between atoms: _207  and  _209
REMARK   90  A    between atoms: _209  and  _210
REMARK   91  A    between atoms: _209  and  _212
REMARK   92  A    between atoms: _212  and  _213
REMARK   93  A    between atoms: _216  and  _218
REMARK   94  A    between atoms: _218  and  _219
REMARK   95  A    between atoms: _218  and  _221
REMARK   96  A    between atoms: _221  and  _222
REMARK   97  A    between atoms: _226  and  _227
REMARK   98  A    between atoms: _232  and  _234
REMARK   99  A    between atoms: _234  and  _235
REMARK  100  A    between atoms: _234  and  _237
REMARK  101  A    between atoms: _240  and  _242
REMARK  102  A    between atoms: _242  and  _243
REMARK  103  A    between atoms: _242  and  _245
REMARK  104  A    between atoms: _245  and  _246
REMARK  105  A    between atoms: _251  and  _253
REMARK  106  A    between atoms: _253  and  _254
REMARK  107  A    between atoms: _253  and  _256
REMARK  108  A    between atoms: _256  and  _257
REMARK  109  A    between atoms: _260  and  _262
REMARK  110  A    between atoms: _262  and  _263
REMARK  111  A    between atoms: _262  and  _265
REMARK  112  A    between atoms: _265  and  _266
REMARK  113  A    between atoms: _269  and  _271
REMARK  114  A    between atoms: _271  and  _272
REMARK  115  A    between atoms: _274  and  _276
REMARK  116  A    between atoms: _276  and  _277
REMARK  117  A    between atoms: _276  and  _279
REMARK  118  A    between atoms: _279  and  _280
REMARK  119  A    between atoms: _280  and  _281
REMARK  120  A    between atoms: _281  and  _282
REMARK  121  A    between atoms: _291  and  _293
REMARK  122  A    between atoms: _293  and  _294
REMARK  123  A    between atoms: _293  and  _296
REMARK  124  A    between atoms: _296  and  _297
REMARK  125  A    between atoms: _297  and  _298
REMARK  126  A    between atoms: _298  and  _299
REMARK  127  A    between atoms: _308  and  _310
REMARK  128  A    between atoms: _310  and  _311
REMARK  129  A    between atoms: _310  and  _313
REMARK  130  A    between atoms: _313  and  _314
REMARK  131  A    between atoms: _317  and  _319
REMARK  132  A    between atoms: _319  and  _320
REMARK  133  A    between atoms: _319  and  _322
REMARK  134  A    between atoms: _322  and  _323
REMARK  135  A    between atoms: _326  and  _328
REMARK  136  A    between atoms: _328  and  _329
REMARK  137  A    between atoms: _328  and  _331
REMARK  138  A    between atoms: _331  and  _332
REMARK  139  A    between atoms: _335  and  _337
REMARK  140  A    between atoms: _337  and  _338
REMARK  141  A    between atoms: _337  and  _340
REMARK  142  A    between atoms: _340  and  _341
REMARK  143  A    between atoms: _344  and  _346
REMARK  144  A    between atoms: _346  and  _347
REMARK  145  A    between atoms: _346  and  _349
REMARK  146  A    between atoms: _349  and  _350
REMARK  147  A    between atoms: _353  and  _355
REMARK  148  A    between atoms: _355  and  _356
REMARK  149  A    between atoms: _358  and  _360
REMARK  150  A    between atoms: _360  and  _361
REMARK  151  A    between atoms: _364  and  _366
REMARK  152  A    between atoms: _366  and  _367
REMARK  153  A    between atoms: _366  and  _369
REMARK  154  A    between atoms: _369  and  _370
REMARK  155  A    between atoms: _373  and  _375
REMARK  156  A    between atoms: _375  and  _376
REMARK  157  A    between atoms: _375  and  _378
REMARK  158  A    between atoms: _378  and  _379
REMARK  159  A    between atoms: _382  and  _384
REMARK  160  A    between atoms: _384  and  _385
REMARK  161  A    between atoms: _384  and  _387
REMARK  162  A    between atoms: _387  and  _388
REMARK  163  A    between atoms: _391  and  _393
REMARK  164  A    between atoms: _393  and  _394
REMARK  165  A    between atoms: _393  and  _396
REMARK  166  A    between atoms: _399  and  _401
REMARK  167  A    between atoms: _401  and  _402
REMARK  168  A    between atoms: _401  and  _404
REMARK  169  A    between atoms: _404  and  _405
REMARK  170  A    between atoms: _408  and  _410
REMARK  171  A    between atoms: _410  and  _411
REMARK  172  A    between atoms: _410  and  _413
REMARK  173  A    between atoms: _413  and  _414
REMARK  174  A    between atoms: _414  and  _415
REMARK  175  A    between atoms: _415  and  _416
REMARK  176  A    between atoms: _416  and  _417
REMARK  177  A    between atoms: _421  and  _423
REMARK  178  A    between atoms: _423  and  _424
REMARK  179  A    between atoms: _423  and  _426
REMARK  180  A    between atoms: _426  and  _427
REMARK  181  A    between atoms: _427  and  _428
REMARK  182  A    between atoms: _430  and  _432
REMARK  183  A    between atoms: _432  and  _433
REMARK  184  A    between atoms: _432  and  _435
REMARK  185  A    between atoms: _435  and  _436
REMARK  186  A    between atoms: _439  and  _441
REMARK  187  A    between atoms: _441  and  _442
REMARK  188  A    between atoms: _444  and  _446
REMARK  189  A    between atoms: _446  and  _447
REMARK  190  A    between atoms: _449  and  _451
REMARK  191  A    between atoms: _451  and  _452
REMARK  192  A    between atoms: _451  and  _454
REMARK  193  A    between atoms: _454  and  _455
REMARK  194  A    between atoms: _458  and  _460
REMARK  195  A    between atoms: _460  and  _461
REMARK  196  A    between atoms: _463  and  _465
REMARK  197  A    between atoms: _465  and  _466
REMARK  198  A    between atoms: _468  and  _470
REMARK  199  A    between atoms: _470  and  _471
REMARK  200  A    between atoms: _470  and  _473
REMARK  201  A    between atoms: _473  and  _474
REMARK  202  A    between atoms: _480  and  _482
REMARK  203  A    between atoms: _482  and  _483
REMARK  204  A    between atoms: _482  and  _485
REMARK  205  A    between atoms: _485  and  _486
REMARK  206  A    between atoms: _489  and  _491
REMARK  207  A    between atoms: _491  and  _492
REMARK  208  A    between atoms: _491  and  _494
REMARK  209  A    between atoms: _497  and  _499
REMARK  210  A    between atoms: _499  and  _500
REMARK  211  A    between atoms: _499  and  _502
REMARK  212  A    between atoms: _502  and  _503
REMARK  213  A    between atoms: _506  and  _508
REMARK  214  A    between atoms: _508  and  _509
REMARK  215  A    between atoms: _508  and  _511
REMARK  216  A    between atoms: _511  and  _512
REMARK  217  A    between atoms: _516  and  _517
REMARK  218  A    between atoms: _522  and  _524
REMARK  219  A    between atoms: _524  and  _525
REMARK  220  A    between atoms: _524  and  _527
REMARK  221  A    between atoms: _530  and  _532
REMARK  222  A    between atoms: _532  and  _533
REMARK  223  A    between atoms: _532  and  _535
REMARK  224  A    between atoms: _535  and  _536
REMARK  225  A    between atoms: _541  and  _543
REMARK  226  A    between atoms: _543  and  _544
REMARK  227  A    between atoms: _543  and  _546
REMARK  228  A    between atoms: _546  and  _547
REMARK  229  A    between atoms: _550  and  _552
REMARK  230  A    between atoms: _552  and  _553
REMARK  231  A    between atoms: _552  and  _555
REMARK  232  A    between atoms: _555  and  _556
REMARK  233  A    between atoms: _559  and  _561
REMARK  234  A    between atoms: _561  and  _562
REMARK  235  A    between atoms: _564  and  _566
REMARK  236  A    between atoms: _566  and  _567
REMARK  237  A    between atoms: _566  and  _569
REMARK  238  A    between atoms: _569  and  _570
REMARK  239  A    between atoms: _570  and  _571
REMARK  240  A    between atoms: _571  and  _572
REMARK                            x       y       z     vdW  Elec       q    Type
REMARK                         _______ _______ _______ _____ _____    ______ ____
ROOT
ATOM      1  CA  LEU A   1      11.601  30.906  -6.463  0.00  0.00    +0.133 C 
ENDROOT
BRANCH   1   2
ATOM      2  N   LEU A   1      12.010  31.892  -5.476  0.00  0.00    -0.239 NA
ATOM      3  H   LEU A   1      11.418  32.736  -5.337  0.00  0.00    +0.142 HD
ENDBRANCH   1   2
BRANCH   1   4
ATOM      4  C   LEU A   1      12.234  31.213  -7.810  0.00  0.00    +0.224 C 
ATOM      5  O   LEU A   1      12.247  32.360  -8.252  0.00  0.00    -0.287 OA
ENDBRANCH   1   4
BRANCH   1   6
ATOM      6  CB  LEU A   1      10.078  30.914  -6.612  0.00  0.00    +0.025 C 
BRANCH   6   7
ATOM      7  CG  LEU A   1       9.255  30.556  -5.374  0.00  0.00    +0.002 C 
ATOM      8  CD2 LEU A   1       9.473  29.095  -5.013  0.00  0.00    +0.000 C 
ATOM      9  CD1 LEU A   1       7.781  30.826  -5.646  0.00  0.00    +0.000 C 
ENDBRANCH   6   7
ENDBRANCH   1   6
TORSDOF 4
REMARK  Name = ../refined-set-2016/1ebw/1ebw_pocket.pdb
REMARK  240 active torsions:
REMARK  status: ('A' for Active; 'I' for Inactive)
REMARK    1  A    between atoms: _1  and  _3
REMARK    2  A    between atoms: _3  and  _4
REMARK    3  A    between atoms: _3  and  _6
REMARK    4  A    between atoms: _6  and  _7
REMARK    5  A    between atoms: _7  and  _8
REMARK    6  A    between atoms: _8  and  _9
REMARK    7  A    between atoms: _18  and  _20
REMARK    8  A    between atoms: _20  and  _21
REMARK    9  A    between atoms: _20  and  _23
REMARK   10  A    between atoms: _23  and  _24
REMARK   11  A    between atoms: _27  and  _29
REMARK   12  A    between atoms: _29  and  _30
REMARK   13  A    between atoms: _29  and  _32
REMARK   14  A    between atoms: _32  and  _33
REMARK   15  A    between atoms: _36  and  _38
REMARK   16  A    between atoms: _38  and  _39
REMARK   17  A    between atoms: _38  and  _41
REMARK   18  A    between atoms: _41  and  _42
REMARK   19  A    between atoms: _45  and  _47
REMARK   20  A    between atoms: _47  and  _48
REMARK   21  A    between atoms: _47  and  _50
REMARK   22  A    between atoms: _50  and  _51
REMARK   23  A    between atoms: _54  and  _56
REMARK   24  A    between atoms: _56  and  _57
REMARK   25  A    between atoms: _56  and  _59
REMARK   26  A    between atoms: _59  and  _60
REMARK   27  A    between atoms: _63  and  _65
REMARK   28  A    between atoms: _65  and  _66
REMARK   29  A    between atoms: _68  and  _70
REMARK   30  A    between atoms: _70  and  _71
REMARK   31  A    between atoms: _74  and  _76
REMARK   32  A    between atoms: _76  and  _77
REMARK   33  A    between atoms: _76  and  _79
REMARK   34  A    between atoms: _79  and  _80
REMARK   35  A    between atoms: _83  and  _85
REMARK   36  A    between atoms: _85  and  _86
REMARK   37  A    between atoms: _85  and  _88
REMARK   38  A    between atoms: _88  and  _89
REMARK   39  A    between atoms: _92  and  _94
REMARK   40  A    between atoms: _94  and  _95
REMARK   41  A    between atoms: _94  and  _97
REMARK   42  A    between atoms: _97  and  _98
REMARK   43  A    between atoms: _101  and  _103
REMARK   44  A    between atoms: _103  and  _104
REMARK   45  A    between atoms: _103  and  _106
REMARK   46  A    between atoms: _109  and  _111
REMARK   47  A    between atoms: _111  and  _112
REMARK   48  A    between atoms: _111  and  _114
REMARK   49  A    between atoms: _114  and  _115
REMARK   50  A    between atoms: _118  and  _120
REMARK   51  A    between atoms: _120  and  _121
REMARK   52  A    between atoms: _120  and  _123
REMARK   53  A    between atoms: _123  and  _124
REMARK   54  A    between atoms: _124  and  _125
REMARK   55  A    between atoms: _125  and  _126
REMARK   56  A    between atoms: _126  and  _127
REMARK   57  A    between atoms: _131  and  _133
REMARK   58  A    between atoms: _133  and  _134
REMARK   59  A    between atoms: _133  and  _136
REMARK   60  A    between atoms: _136  and  _137
REMARK   61  A    between atoms: _137  and  _138
REMARK   62  A    between atoms: _140  and  _142
REMARK   63  A    between atoms: _142  and  _143
REMARK   64  A    between atoms: _142  and  _145
REMARK   65  A    between atoms: _145  and  _146
REMARK   66  A    between atoms: _149  and  _151
REMARK   67  A    between atoms: _151  and  _152
REMARK   68  A    between atoms: _154  and  _156
REMARK   69  A    between atoms: _156  and  _157
REMARK   70  A    between atoms: _159  and  _161
REMARK   71  A    between atoms: _161  and  _162
REMARK   72  A    between atoms: _161  and  _164
REMARK   73  A    between atoms: _164  and  _165
REMARK   74  A    between atoms: _168  and  _170
REMARK   75  A    between atoms: _170  and  _171
REMARK   76  A    between atoms: _173  and  _175
REMARK   77  A    between atoms: _175  and  _176
REMARK   78  A    between atoms: _178  and  _180
REMARK   79  A    between atoms: _180  and  _181
REMARK   80  A    between atoms: _180  and  _183
REMARK   81  A    between atoms: _183  and  _184
REMARK   82  A    between atoms: _190  and  _192
REMARK   83  A    between atoms: _192  and  _193
REMARK   84  A    between atoms: _192  and  _195
REMARK   85  A    between atoms: _195  and  _196
REMARK   86  A    between atoms: _199  and  _201
REMARK   87  A    between atoms: _201  and  _202
REMARK   88  A    between atoms: _201  and  _204
REMARK   89  A    between atoms: _207  and  _209
REMARK   90  A    between atoms: _209  and  _210
REMARK   91  A    between atoms: _209  and  _212
REMARK   92  A    between atoms: _212  and  _213
REMARK   93  A    between atoms: _216  and  _218
REMARK   94  A    between atoms: _218  and  _219
REMARK   95  A    between atoms: _218  and  _221
REMARK   96  A    between atoms: _221  and  _222
REMARK   97  A    between atoms: _226  and  _227
REMARK   98  A    between atoms: _232  and  _234
REMARK   99  A    between atoms: _234  and  _235
REMARK  100  A    between atoms: _234  and  _237
REMARK  101  A    between atoms: _240  and  _242
REMARK  102  A    between atoms: _242  and  _243
REMARK  103  A    between atoms: _242  and  _245
REMARK  104  A    between atoms: _245  and  _246
REMARK  105  A    between atoms: _251  and  _253
REMARK  106  A    between atoms: _253  and  _254
REMARK  107  A    between atoms: _253  and  _256
REMARK  108  A    between atoms: _256  and  _257
REMARK  109  A    between atoms: _260  and  _262
REMARK  110  A    between atoms: _262  and  _263
REMARK  111  A    between atoms: _262  and  _265
REMARK  112  A    between atoms: _265  and  _266
REMARK  113  A    between atoms: _269  and  _271
REMARK  114  A    between atoms: _271  and  _272
REMARK  115  A    between atoms: _274  and  _276
REMARK  116  A    between atoms: _276  and  _277
REMARK  117  A    between atoms: _276  and  _279
REMARK  118  A    between atoms: _279  and  _280
REMARK  119  A    between atoms: _280  and  _281
REMARK  120  A    between atoms: _281  and  _282
REMARK  121  A    between atoms: _291  and  _293
REMARK  122  A    between atoms: _293  and  _294
REMARK  123  A    between atoms: _293  and  _296
REMARK  124  A    between atoms: _296  and  _297
REMARK  125  A    between atoms: _297  and  _298
REMARK  126  A    between atoms: _298  and  _299
REMARK  127  A    between atoms: _308  and  _310
REMARK  128  A    between atoms: _310  and  _311
REMARK  129  A    between atoms: _310  and  _313
REMARK  130  A    between atoms: _313  and  _314
REMARK  131  A    between atoms: _317  and  _319
REMARK  132  A    between atoms: _319  and  _320
REMARK  133  A    between atoms: _319  and  _322
REMARK  134  A    between atoms: _322  and  _323
REMARK  135  A    between atoms: _326  and  _328
REMARK  136  A    between atoms: _328  and  _329
REMARK  137  A    between atoms: _328  and  _331
REMARK  138  A    between atoms: _331  and  _332
REMARK  139  A    between atoms: _335  and  _337
REMARK  140  A    between atoms: _337  and  _338
REMARK  141  A    between atoms: _337  and  _340
REMARK  142  A    between atoms: _340  and  _341
REMARK  143  A    between atoms: _344  and  _346
REMARK  144  A    between atoms: _346  and  _347
REMARK  145  A    between atoms: _346  and  _349
REMARK  146  A    between atoms: _349  and  _350
REMARK  147  A    between atoms: _353  and  _355
REMARK  148  A    between atoms: _355  and  _356
REMARK  149  A    between atoms: _358  and  _360
REMARK  150  A    between atoms: _360  and  _361
REMARK  151  A    between atoms: _364  and  _366
REMARK  152  A    between atoms: _366  and  _367
REMARK  153  A    between atoms: _366  and  _369
REMARK  154  A    between atoms: _369  and  _370
REMARK  155  A    between atoms: _373  and  _375
REMARK  156  A    between atoms: _375  and  _376
REMARK  157  A    between atoms: _375  and  _378
REMARK  158  A    between atoms: _378  and  _379
REMARK  159  A    between atoms: _382  and  _384
REMARK  160  A    between atoms: _384  and  _385
REMARK  161  A    between atoms: _384  and  _387
REMARK  162  A    between atoms: _387  and  _388
REMARK  163  A    between atoms: _391  and  _393
REMARK  164  A    between atoms: _393  and  _394
REMARK  165  A    between atoms: _393  and  _396
REMARK  166  A    between atoms: _399  and  _401
REMARK  167  A    between atoms: _401  and  _402
REMARK  168  A    between atoms: _401  and  _404
REMARK  169  A    between atoms: _404  and  _405
REMARK  170  A    between atoms: _408  and  _410
REMARK  171  A    between atoms: _410  and  _411
REMARK  172  A    between atoms: _410  and  _413
REMARK  173  A    between atoms: _413  and  _414
REMARK  174  A    between atoms: _414  and  _415
REMARK  175  A    between atoms: _415  and  _416
REMARK  176  A    between atoms: _416  and  _417
REMARK  177  A    between atoms: _421  and  _423
REMARK  178  A    between atoms: _423  and  _424
REMARK  179  A    between atoms: _423  and  _426
REMARK  180  A    between atoms: _426  and  _427
REMARK  181  A    between atoms: _427  and  _428
REMARK  182  A    between atoms: _430  and  _432
REMARK  183  A    between atoms: _432  and  _433
REMARK  184  A    between atoms: _432  and  _435
REMARK  185  A    between atoms: _435  and  _436
REMARK  186  A    between atoms: _439  and  _441
REMARK  187  A    between atoms: _441  and  _442
REMARK  188  A    between atoms: _444  and  _446
REMARK  189  A    between atoms: _446  and  _447
REMARK  190  A    between atoms: _449  and  _451
REMARK  191  A    between atoms: _451  and  _452
REMARK  192  A    between atoms: _451  and  _454
REMARK  193  A    between atoms: _454  and  _455
REMARK  194  A    between atoms: _458  and  _460
REMARK  195  A    between atoms: _460  and  _461
REMARK  196  A    between atoms: _463  and  _465
REMARK  197  A    between atoms: _465  and  _466
REMARK  198  A    between atoms: _468  and  _470
REMARK  199  A    between atoms: _470  and  _471
REMARK  200  A    between atoms: _470  and  _473
REMARK  201  A    between atoms: _473  and  _474
REMARK  202  A    between atoms: _480  and  _482
REMARK  203  A    between atoms: _482  and  _483
REMARK  204  A    between atoms: _482  and  _485
REMARK  205  A    between atoms: _485  and  _486
REMARK  206  A    between atoms: _489  and  _491
REMARK  207  A    between atoms: _491  and  _492
REMARK  208  A    between atoms: _491  and  _494
REMARK  209  A    between atoms: _497  and  _499
REMARK  210  A    between atoms: _499  and  _500
REMARK  211  A    between atoms: _499  and  _502
REMARK  212  A    between atoms: _502  and  _503
REMARK  213  A    between atoms: _506  and  _508
REMARK  214  A    between atoms: _508  and  _509
REMARK  215  A    between atoms: _508  and  _511
REMARK  216  A    between atoms: _511  and  _512
REMARK  217  A    between atoms: _516  and  _517
REMARK  218  A    between atoms: _522  and  _524
REMARK  219  A    between atoms: _524  and  _525
REMARK  220  A    between atoms: _524  and  _527
REMARK  221  A    between atoms: _530  and  _532
REMARK  222  A    between atoms: _532  and  _533
REMARK  223  A    between atoms: _532  and  _535
REMARK  224  A    between atoms: _535  and  _536
REMARK  225  A    between atoms: _541  and  _543
REMARK  226  A    between atoms: _543  and  _544
REMARK  227  A    between atoms: _543  and  _546
REMARK  228  A    between atoms: _546  and  _547
REMARK  229  A    between atoms: _550  and  _552
REMARK  230  A    between atoms: _552  and  _553
REMARK  231  A    between atoms: _552  and  _555
REMARK  232  A    between atoms: _555  and  _556
REMARK  233  A    between atoms: _559  and  _561
REMARK  234  A    between atoms: _561  and  _562
REMARK  235  A    between atoms: _564  and  _566
REMARK  236  A    between atoms: _566  and  _567
REMARK  237  A    between atoms: _566  and  _569
REMARK  238  A    between atoms: _569  and  _570
REMARK  239  A    between atoms: _570  and  _571
REMARK  240  A    between atoms: _571  and  _572
REMARK                            x       y       z     vdW  Elec       q    Type
REMARK                         _______ _______ _______ _____ _____    ______ ____
ROOT
ATOM      1  C   ALA A   6      20.087  21.713   2.227  0.00  0.00    +0.241 C 
ATOM      2  N   ASP A   7      20.509  20.594   2.817  0.00  0.00    -0.297 N 
ATOM      3  H   ASP A   7      19.937  20.161   3.570  0.00  0.00    +0.150 HD
ATOM      4  O   ALA A   6      20.731  22.281   1.349  0.00  0.00    -0.273 OA
ENDROOT
BRANCH   1   5
ATOM      5  CA  ALA A   6      18.750  22.281   2.696  0.00  0.00    +0.149 C 
ATOM      6  CB  ALA A   6      17.720  22.167   1.573  0.00  0.00    +0.031 C 
BRANCH   5   9
ATOM      7  C   GLY A   5      18.681  24.040   4.388  0.00  0.00    +0.243 C 
ATOM      8  O   GLY A   5      18.414  23.235   5.280  0.00  0.00    -0.273 OA
ATOM      9  N   ALA A   6      18.865  23.678   3.123  0.00  0.00    -0.297 N 
ATOM     10  H   ALA A   6      19.097  24.406   2.417  0.00  0.00    +0.150 HD
BRANCH   7  11
ATOM     11  CA  GLY A   5      18.820  25.520   4.710  0.00  0.00    +0.176 C 
BRANCH  11  14
ATOM     12  C   THR A   4      20.228  26.600   3.073  0.00  0.00    +0.243 C 
ATOM     13  O   THR A   4      21.246  26.133   3.589  0.00  0.00    -0.273 OA
ATOM     14  N   GLY A   5      19.008  26.363   3.543  0.00  0.00    -0.295 N 
ATOM     15  H   GLY A   5      18.182  26.784   3.072  0.00  0.00    +0.150 HD
BRANCH  12  16
ATOM     16  CA  THR A   4      20.324  27.496   1.835  0.00  0.00    +0.176 C 
BRANCH  16  18
ATOM     17  C   ASP A   3      18.493  26.611   0.512  0.00  0.00    +0.241 C 
ATOM     18  N   THR A   4      19.042  27.639   1.156  0.00  0.00    -0.295 N 
ATOM     19  H   THR A   4      18.550  28.555   1.175  0.00  0.00    +0.150 HD
ATOM     20  O   ASP A   3      19.014  25.502   0.478  0.00  0.00    -0.273 OA
BRANCH  17  21
ATOM     21  CA  ASP A   3      17.143  26.843  -0.168  0.00  0.00    +0.160 C 
BRANCH  21  24
ATOM     22  C   LEU A   2      16.753  28.221  -2.143  0.00  0.00    +0.241 C 
ATOM     23  O   LEU A   2      16.418  29.194  -1.470  0.00  0.00    -0.273 OA
ATOM     24  N   ASP A   3      17.172  27.080  -1.608  0.00  0.00    -0.297 N 
ATOM     25  H   ASP A   3      17.532  26.332  -2.235  0.00  0.00    +0.150 HD
BRANCH  22  26
ATOM     26  CA  LEU A   2      16.721  28.277  -3.669  0.00  0.00    +0.149 C 
BRANCH  26  29
ATOM     27  C   LEU A   1      14.575  27.152  -3.929  0.00  0.00    +0.238 C 
ATOM     28  O   LEU A   1      15.085  26.067  -3.703  0.00  0.00    -0.274 OA
ATOM     29  N   LEU A   2      15.284  28.281  -3.963  0.00  0.00    -0.297 N 
ATOM     30  H   LEU A   2      14.812  29.176  -4.201  0.00  0.00    +0.150 HD
BRANCH  27  31
ATOM     31  CA  LEU A   1      13.072  27.249  -4.200  0.00  0.00    +0.145 C 
BRANCH  31  32
ATOM     32  N   LEU A   1      12.635  26.313  -5.226  0.00  0.00    -0.238 NA
ATOM     33  H   LEU A   1      12.475  25.321  -4.959  0.00  0.00    +0.142 HD
ENDBRANCH  31  32
BRANCH  31  34
ATOM     34  CB  LEU A   1      12.283  26.944  -2.921  0.00  0.00    +0.026 C 
BRANCH  34  35
ATOM     35  CG  LEU A   1      12.404  27.771  -1.642  0.00  0.00    +0.002 C 
ATOM     36  CD2 LEU A   1      11.602  27.078  -0.535  0.00  0.00    +0.000 C 
ATOM     37  CD1 LEU A   1      11.871  29.168  -1.867  0.00  0.00    +0.000 C 
ENDBRANCH  34  35
ENDBRANCH  31  34
ENDBRANCH  27  31
ENDBRANCH  26  29
BRANCH  26  38
ATOM     38  CB  LEU A   2      17.384  29.554  -4.185  0.00  0.00    +0.029 C 
BRANCH  38  39
ATOM     39  CG  LEU A   2      17.294  29.803  -5.696  0.00  0.00    +0.002 C 
ATOM     40  CD2 LEU A   2      18.055  31.072  -6.025  0.00  0.00    +0.000 C 
ATOM     41  CD1 LEU A   2      17.860  28.616  -6.480  0.00  0.00    +0.000 C 
ENDBRANCH  38  39
ENDBRANCH  26  38
ENDBRANCH  22  26
ENDBRANCH  21  24
BRANCH  21  42
ATOM     42  CB  ASP A   3      16.249  25.623   0.065  0.00  0.00    +0.143 C 
BRANCH  42  43
ATOM     43  CG  ASP A   3      15.812  25.478   1.500  0.00  0.00    +0.367 C 
ATOM     44  OD2 ASP A   3      16.449  26.080   2.387  0.00  0.00    -0.246 OA
ATOM     45  OD1 ASP A   3      14.829  24.753   1.726  0.00  0.00    -0.246 OA
ENDBRANCH  42  43
ENDBRANCH  21  42
ENDBRANCH  17  21
ENDBRANCH  16  18
BRANCH  16  46
ATOM     46  CB  THR A   4      20.894  28.857   2.264  0.00  0.00    +0.137 C 
ATOM     47  CG2 THR A   4      21.159  29.719   1.052  0.00  0.00    +0.034 C 
BRANCH  46  48
ATOM     48  OG1 THR A   4      19.966  29.523   3.126  0.00  0.00    -0.382 OA
ATOM     49  HG1 THR A   4      19.806  28.967   3.929  0.00  0.00    +0.210 HD
ENDBRANCH  46  48
ENDBRANCH  16  46
ENDBRANCH  12  16
ENDBRANCH  11  14
ENDBRANCH   7  11
ENDBRANCH   5   9
ENDBRANCH   1   5
BRANCH   2  50
ATOM     50  CA  ASP A   7      21.768  19.970   2.414  0.00  0.00    +0.160 C 
BRANCH  50  51
ATOM     51  C   ASP A   7      21.625  19.407   1.006  0.00  0.00    +0.241 C 
ATOM     52  N   ASP A   8      20.440  18.876   0.723  0.00  0.00    -0.297 N 
ATOM     53  H   ASP A   8      19.682  18.929   1.433  0.00  0.00    +0.150 HD
ATOM     54  O   ASP A   7      22.564  19.434   0.214  0.00  0.00    -0.273 OA
BRANCH  52  55
ATOM     55  CA  ASP A   8      20.169  18.223  -0.550  0.00  0.00    +0.160 C 
BRANCH  55  56
ATOM     56  C   ASP A   8      19.112  18.889  -1.410  0.00  0.00    +0.241 C 
ATOM     57  O   ASP A   8      18.371  19.758  -0.959  0.00  0.00    -0.273 OA
ATOM     58  N   THR A   9      19.048  18.439  -2.659  0.00  0.00    -0.295 N 
ATOM     59  H   THR A   9      19.716  17.697  -2.951  0.00  0.00    +0.150 HD
BRANCH  58  60
ATOM     60  CA  THR A   9      18.091  18.931  -3.638  0.00  0.00    +0.176 C 
BRANCH  60  61
ATOM     61  C   THR A   9      17.017  17.857  -3.774  0.00  0.00    +0.243 C 
ATOM     62  N   VAL A  10      15.763  18.236  -3.549  0.00  0.00    -0.297 N 
ATOM     63  H   VAL A  10      15.569  19.229  -3.308  0.00  0.00    +0.150 HD
ATOM     64  O   THR A   9      17.325  16.701  -4.068  0.00  0.00    -0.273 OA
BRANCH  62  65
ATOM     65  CA  VAL A  10      14.652  17.293  -3.632  0.00  0.00    +0.149 C 
BRANCH  65  66
ATOM     66  C   VAL A  10      13.539  17.842  -4.502  0.00  0.00    +0.241 C 
ATOM     67  O   VAL A  10      13.093  18.971  -4.306  0.00  0.00    -0.273 OA
ATOM     68  N   LEU A  11      13.093  17.040  -5.462  0.00  0.00    -0.298 N 
ATOM     69  H   LEU A  11      13.516  16.096  -5.573  0.00  0.00    +0.150 HD
BRANCH  68  70
ATOM     70  CA  LEU A  11      12.026  17.450  -6.363  0.00  0.00    +0.137 C 
BRANCH  70  71
ATOM     71  C   LEU A  11      10.788  16.597  -6.154  0.00  0.00    +0.227 C 
ATOM     72  O   LEU A  11      10.871  15.464  -5.676  0.00  0.00    -0.286 OA
ENDBRANCH  70  71
BRANCH  70  73
ATOM     73  CB  LEU A  11      12.474  17.318  -7.820  0.00  0.00    +0.028 C 
BRANCH  73  74
ATOM     74  CG  LEU A  11      13.706  18.127  -8.228  0.00  0.00    +0.002 C 
ATOM     75  CD2 LEU A  11      13.450  19.605  -7.995  0.00  0.00    +0.000 C 
ATOM     76  CD1 LEU A  11      14.019  17.855  -9.687  0.00  0.00    +0.000 C 
ENDBRANCH  73  74
ENDBRANCH  70  73
ENDBRANCH  68  70
ENDBRANCH  65  66
BRANCH  65  77
ATOM     77  CB  VAL A  10      14.063  16.998  -2.237  0.00  0.00    +0.027 C 
ATOM     78  CG2 VAL A  10      15.178  16.685  -1.267  0.00  0.00    +0.002 C 
ATOM     79  CG1 VAL A  10      13.075  15.823  -2.325  0.00  0.00    +0.002 C 
ENDBRANCH  65  77
ENDBRANCH  62  65
ENDBRANCH  60  61
BRANCH  60  80
ATOM     80  CB  THR A   9      18.784  19.150  -4.994  0.00  0.00    +0.137 C 
ATOM     81  CG2 THR A   9      17.768  19.455  -6.091  0.00  0.00    +0.034 C 
BRANCH  80  82
ATOM     82  OG1 THR A   9      19.711  20.239  -4.878  0.00  0.00    -0.382 OA
ATOM     83  HG1 THR A   9      20.388  20.023  -4.189  0.00  0.00    +0.210 HD
ENDBRANCH  80  82
ENDBRANCH  60  80
ENDBRANCH  58  60
ENDBRANCH  55  56
BRANCH  55  84
ATOM     84  CB  ASP A   8      19.737  16.774  -0.293  0.00  0.00    +0.143 C 
BRANCH  84  85
ATOM     85  CG  ASP A   8      20.706  16.022   0.608  0.00  0.00    +0.367 C 
ATOM     86  OD2 ASP A   8      20.259  15.440   1.618  0.00  0.00    -0.246 OA
ATOM     87  OD1 ASP A   8      21.912  16.012   0.305  0.00  0.00    -0.246 OA
ENDBRANCH  84  85
ENDBRANCH  55  84
ENDBRANCH  52  55
ENDBRANCH  50  51
BRANCH  50  88
ATOM     88  CB  ASP A   7      22.118  18.776   3.304  0.00  0.00    +0.143 C 
BRANCH  88  89
ATOM     89  CG  ASP A   7      22.590  19.167   4.683  0.00  0.00    +0.367 C 
ATOM     90  OD2 ASP A   7      22.795  18.237   5.489  0.00  0.00    -0.246 OA
ATOM     91  OD1 ASP A   7      22.766  20.368   4.967  0.00  0.00    -0.246 OA
ENDBRANCH  88  89
ENDBRANCH  50  88
ENDBRANCH   2  50
TORSDOF 39
REMARK  Name = ../refined-set-2016/1ebw/1ebw_pocket.pdb
REMARK  240 active torsions:
REMARK  status: ('A' for Active; 'I' for Inactive)
REMARK    1  A    between atoms: _1  and  _3
REMARK    2  A    between atoms: _3  and  _4
REMARK    3  A    between atoms: _3  and  _6
REMARK    4  A    between atoms: _6  and  _7
REMARK    5  A    between atoms: _7  and  _8
REMARK    6  A    between atoms: _8  and  _9
REMARK    7  A    between atoms: _18  and  _20
REMARK    8  A    between atoms: _20  and  _21
REMARK    9  A    between atoms: _20  and  _23
REMARK   10  A    between atoms: _23  and  _24
REMARK   11  A    between atoms: _27  and  _29
REMARK   12  A    between atoms: _29  and  _30
REMARK   13  A    between atoms: _29  and  _32
REMARK   14  A    between atoms: _32  and  _33
REMARK   15  A    between atoms: _36  and  _38
REMARK   16  A    between atoms: _38  and  _39
REMARK   17  A    between atoms: _38  and  _41
REMARK   18  A    between atoms: _41  and  _42
REMARK   19  A    between atoms: _45  and  _47
REMARK   20  A    between atoms: _47  and  _48
REMARK   21  A    between atoms: _47  and  _50
REMARK   22  A    between atoms: _50  and  _51
REMARK   23  A    between atoms: _54  and  _56
REMARK   24  A    between atoms: _56  and  _57
REMARK   25  A    between atoms: _56  and  _59
REMARK   26  A    between atoms: _59  and  _60
REMARK   27  A    between atoms: _63  and  _65
REMARK   28  A    between atoms: _65  and  _66
REMARK   29  A    between atoms: _68  and  _70
REMARK   30  A    between atoms: _70  and  _71
REMARK   31  A    between atoms: _74  and  _76
REMARK   32  A    between atoms: _76  and  _77
REMARK   33  A    between atoms: _76  and  _79
REMARK   34  A    between atoms: _79  and  _80
REMARK   35  A    between atoms: _83  and  _85
REMARK   36  A    between atoms: _85  and  _86
REMARK   37  A    between atoms: _85  and  _88
REMARK   38  A    between atoms: _88  and  _89
REMARK   39  A    between atoms: _92  and  _94
REMARK   40  A    between atoms: _94  and  _95
REMARK   41  A    between atoms: _94  and  _97
REMARK   42  A    between atoms: _97  and  _98
REMARK   43  A    between atoms: _101  and  _103
REMARK   44  A    between atoms: _103  and  _104
REMARK   45  A    between atoms: _103  and  _106
REMARK   46  A    between atoms: _109  and  _111
REMARK   47  A    between atoms: _111  and  _112
REMARK   48  A    between atoms: _111  and  _114
REMARK   49  A    between atoms: _114  and  _115
REMARK   50  A    between atoms: _118  and  _120
REMARK   51  A    between atoms: _120  and  _121
REMARK   52  A    between atoms: _120  and  _123
REMARK   53  A    between atoms: _123  and  _124
REMARK   54  A    between atoms: _124  and  _125
REMARK   55  A    between atoms: _125  and  _126
REMARK   56  A    between atoms: _126  and  _127
REMARK   57  A    between atoms: _131  and  _133
REMARK   58  A    between atoms: _133  and  _134
REMARK   59  A    between atoms: _133  and  _136
REMARK   60  A    between atoms: _136  and  _137
REMARK   61  A    between atoms: _137  and  _138
REMARK   62  A    between atoms: _140  and  _142
REMARK   63  A    between atoms: _142  and  _143
REMARK   64  A    between atoms: _142  and  _145
REMARK   65  A    between atoms: _145  and  _146
REMARK   66  A    between atoms: _149  and  _151
REMARK   67  A    between atoms: _151  and  _152
REMARK   68  A    between atoms: _154  and  _156
REMARK   69  A    between atoms: _156  and  _157
REMARK   70  A    between atoms: _159  and  _161
REMARK   71  A    between atoms: _161  and  _162
REMARK   72  A    between atoms: _161  and  _164
REMARK   73  A    between atoms: _164  and  _165
REMARK   74  A    between atoms: _168  and  _170
REMARK   75  A    between atoms: _170  and  _171
REMARK   76  A    between atoms: _173  and  _175
REMARK   77  A    between atoms: _175  and  _176
REMARK   78  A    between atoms: _178  and  _180
REMARK   79  A    between atoms: _180  and  _181
REMARK   80  A    between atoms: _180  and  _183
REMARK   81  A    between atoms: _183  and  _184
REMARK   82  A    between atoms: _190  and  _192
REMARK   83  A    between atoms: _192  and  _193
REMARK   84  A    between atoms: _192  and  _195
REMARK   85  A    between atoms: _195  and  _196
REMARK   86  A    between atoms: _199  and  _201
REMARK   87  A    between atoms: _201  and  _202
REMARK   88  A    between atoms: _201  and  _204
REMARK   89  A    between atoms: _207  and  _209
REMARK   90  A    between atoms: _209  and  _210
REMARK   91  A    between atoms: _209  and  _212
REMARK   92  A    between atoms: _212  and  _213
REMARK   93  A    between atoms: _216  and  _218
REMARK   94  A    between atoms: _218  and  _219
REMARK   95  A    between atoms: _218  and  _221
REMARK   96  A    between atoms: _221  and  _222
REMARK   97  A    between atoms: _226  and  _227
REMARK   98  A    between atoms: _232  and  _234
REMARK   99  A    between atoms: _234  and  _235
REMARK  100  A    between atoms: _234  and  _237
REMARK  101  A    between atoms: _240  and  _242
REMARK  102  A    between atoms: _242  and  _243
REMARK  103  A    between atoms: _242  and  _245
REMARK  104  A    between atoms: _245  and  _246
REMARK  105  A    between atoms: _251  and  _253
REMARK  106  A    between atoms: _253  and  _254
REMARK  107  A    between atoms: _253  and  _256
REMARK  108  A    between atoms: _256  and  _257
REMARK  109  A    between atoms: _260  and  _262
REMARK  110  A    between atoms: _262  and  _263
REMARK  111  A    between atoms: _262  and  _265
REMARK  112  A    between atoms: _265  and  _266
REMARK  113  A    between atoms: _269  and  _271
REMARK  114  A    between atoms: _271  and  _272
REMARK  115  A    between atoms: _274  and  _276
REMARK  116  A    between atoms: _276  and  _277
REMARK  117  A    between atoms: _276  and  _279
REMARK  118  A    between atoms: _279  and  _280
REMARK  119  A    between atoms: _280  and  _281
REMARK  120  A    between atoms: _281  and  _282
REMARK  121  A    between atoms: _291  and  _293
REMARK  122  A    between atoms: _293  and  _294
REMARK  123  A    between atoms: _293  and  _296
REMARK  124  A    between atoms: _296  and  _297
REMARK  125  A    between atoms: _297  and  _298
REMARK  126  A    between atoms: _298  and  _299
REMARK  127  A    between atoms: _308  and  _310
REMARK  128  A    between atoms: _310  and  _311
REMARK  129  A    between atoms: _310  and  _313
REMARK  130  A    between atoms: _313  and  _314
REMARK  131  A    between atoms: _317  and  _319
REMARK  132  A    between atoms: _319  and  _320
REMARK  133  A    between atoms: _319  and  _322
REMARK  134  A    between atoms: _322  and  _323
REMARK  135  A    between atoms: _326  and  _328
REMARK  136  A    between atoms: _328  and  _329
REMARK  137  A    between atoms: _328  and  _331
REMARK  138  A    between atoms: _331  and  _332
REMARK  139  A    between atoms: _335  and  _337
REMARK  140  A    between atoms: _337  and  _338
REMARK  141  A    between atoms: _337  and  _340
REMARK  142  A    between atoms: _340  and  _341
REMARK  143  A    between atoms: _344  and  _346
REMARK  144  A    between atoms: _346  and  _347
REMARK  145  A    between atoms: _346  and  _349
REMARK  146  A    between atoms: _349  and  _350
REMARK  147  A    between atoms: _353  and  _355
REMARK  148  A    between atoms: _355  and  _356
REMARK  149  A    between atoms: _358  and  _360
REMARK  150  A    between atoms: _360  and  _361
REMARK  151  A    between atoms: _364  and  _366
REMARK  152  A    between atoms: _366  and  _367
REMARK  153  A    between atoms: _366  and  _369
REMARK  154  A    between atoms: _369  and  _370
REMARK  155  A    between atoms: _373  and  _375
REMARK  156  A    between atoms: _375  and  _376
REMARK  157  A    between atoms: _375  and  _378
REMARK  158  A    between atoms: _378  and  _379
REMARK  159  A    between atoms: _382  and  _384
REMARK  160  A    between atoms: _384  and  _385
REMARK  161  A    between atoms: _384  and  _387
REMARK  162  A    between atoms: _387  and  _388
REMARK  163  A    between atoms: _391  and  _393
REMARK  164  A    between atoms: _393  and  _394
REMARK  165  A    between atoms: _393  and  _396
REMARK  166  A    between atoms: _399  and  _401
REMARK  167  A    between atoms: _401  and  _402
REMARK  168  A    between atoms: _401  and  _404
REMARK  169  A    between atoms: _404  and  _405
REMARK  170  A    between atoms: _408  and  _410
REMARK  171  A    between atoms: _410  and  _411
REMARK  172  A    between atoms: _410  and  _413
REMARK  173  A    between atoms: _413  and  _414
REMARK  174  A    between atoms: _414  and  _415
REMARK  175  A    between atoms: _415  and  _416
REMARK  176  A    between atoms: _416  and  _417
REMARK  177  A    between atoms: _421  and  _423
REMARK  178  A    between atoms: _423  and  _424
REMARK  179  A    between atoms: _423  and  _426
REMARK  180  A    between atoms: _426  and  _427
REMARK  181  A    between atoms: _427  and  _428
REMARK  182  A    between atoms: _430  and  _432
REMARK  183  A    between atoms: _432  and  _433
REMARK  184  A    between atoms: _432  and  _435
REMARK  185  A    between atoms: _435  and  _436
REMARK  186  A    between atoms: _439  and  _441
REMARK  187  A    between atoms: _441  and  _442
REMARK  188  A    between atoms: _444  and  _446
REMARK  189  A    between atoms: _446  and  _447
REMARK  190  A    between atoms: _449  and  _451
REMARK  191  A    between atoms: _451  and  _452
REMARK  192  A    between atoms: _451  and  _454
REMARK  193  A    between atoms: _454  and  _455
REMARK  194  A    between atoms: _458  and  _460
REMARK  195  A    between atoms: _460  and  _461
REMARK  196  A    between atoms: _463  and  _465
REMARK  197  A    between atoms: _465  and  _466
REMARK  198  A    between atoms: _468  and  _470
REMARK  199  A    between atoms: _470  and  _471
REMARK  200  A    between atoms: _470  and  _473
REMARK  201  A    between atoms: _473  and  _474
REMARK  202  A    between atoms: _480  and  _482
REMARK  203  A    between atoms: _482  and  _483
REMARK  204  A    between atoms: _482  and  _485
REMARK  205  A    between atoms: _485  and  _486
REMARK  206  A    between atoms: _489  and  _491
REMARK  207  A    between atoms: _491  and  _492
REMARK  208  A    between atoms: _491  and  _494
REMARK  209  A    between atoms: _497  and  _499
REMARK  210  A    between atoms: _499  and  _500
REMARK  211  A    between atoms: _499  and  _502
REMARK  212  A    between atoms: _502  and  _503
REMARK  213  A    between atoms: _506  and  _508
REMARK  214  A    between atoms: _508  and  _509
REMARK  215  A    between atoms: _508  and  _511
REMARK  216  A    between atoms: _511  and  _512
REMARK  217  A    between atoms: _516  and  _517
REMARK  218  A    between atoms: _522  and  _524
REMARK  219  A    between atoms: _524  and  _525
REMARK  220  A    between atoms: _524  and  _527
REMARK  221  A    between atoms: _530  and  _532
REMARK  222  A    between atoms: _532  and  _533
REMARK  223  A    between atoms: _532  and  _535
REMARK  224  A    between atoms: _535  and  _536
REMARK  225  A    between atoms: _541  and  _543
REMARK  226  A    between atoms: _543  and  _544
REMARK  227  A    between atoms: _543  and  _546
REMARK  228  A    between atoms: _546  and  _547
REMARK  229  A    between atoms: _550  and  _552
REMARK  230  A    between atoms: _552  and  _553
REMARK  231  A    between atoms: _552  and  _555
REMARK  232  A    between atoms: _555  and  _556
REMARK  233  A    between atoms: _559  and  _561
REMARK  234  A    between atoms: _561  and  _562
REMARK  235  A    between atoms: _564  and  _566
REMARK  236  A    between atoms: _566  and  _567
REMARK  237  A    between atoms: _566  and  _569
REMARK  238  A    between atoms: _569  and  _570
REMARK  239  A    between atoms: _570  and  _571
REMARK  240  A    between atoms: _571  and  _572
REMARK                            x       y       z     vdW  Elec       q    Type
REMARK                         _______ _______ _______ _____ _____    ______ ____
ROOT
ATOM      1  C   GLY A   5      12.569  18.588   9.247  0.00  0.00    +0.243 C 
ATOM      2  O   GLY A   5      12.716  17.932  10.281  0.00  0.00    -0.273 OA
ATOM      3  N   ILE A   6      11.783  19.653   9.166  0.00  0.00    -0.297 N 
ATOM      4  H   ILE A   6      11.683  20.133   8.249  0.00  0.00    +0.150 HD
ENDROOT
BRANCH   3   5
ATOM      5  CA  ILE A   6      11.056  20.174  10.311  0.00  0.00    +0.149 C 
BRANCH   5   6
ATOM      6  C   ILE A   6      10.058  19.226  10.965  0.00  0.00    +0.241 C 
ATOM      7  O   ILE A   6      10.050  19.094  12.190  0.00  0.00    -0.273 OA
ATOM      8  N   GLY A   7       9.228  18.568  10.164  0.00  0.00    -0.295 N 
ATOM      9  H   GLY A   7       9.289  18.696   9.134  0.00  0.00    +0.150 HD
BRANCH   8  10
ATOM     10  CA  GLY A   7       8.234  17.669  10.726  0.00  0.00    +0.176 C 
BRANCH  10  11
ATOM     11  C   GLY A   7       8.579  16.193  10.762  0.00  0.00    +0.243 C 
ATOM     12  O   GLY A   7       7.707  15.361  11.016  0.00  0.00    -0.273 OA
ATOM     13  N   GLY A   8       9.839  15.849  10.523  0.00  0.00    -0.295 N 
ATOM     14  H   GLY A   8      10.552  16.579  10.321  0.00  0.00    +0.150 HD
BRANCH  13  15
ATOM     15  CA  GLY A   8      10.215  14.446  10.545  0.00  0.00    +0.176 C 
BRANCH  15  16
ATOM     16  C   GLY A   8      10.965  14.005   9.304  0.00  0.00    +0.243 C 
ATOM     17  N   PHE A   9      10.934  12.705   9.021  0.00  0.00    -0.297 N 
ATOM     18  H   PHE A   9      10.395  12.067   9.641  0.00  0.00    +0.150 HD
ATOM     19  O   GLY A   8      11.547  14.824   8.608  0.00  0.00    -0.273 OA
BRANCH  17  20
ATOM     20  CA  PHE A   9      11.633  12.146   7.867  0.00  0.00    +0.153 C 
BRANCH  20  21
ATOM     21  C   PHE A   9      10.712  11.636   6.769  0.00  0.00    +0.241 C 
ATOM     22  O   PHE A   9       9.563  11.271   7.017  0.00  0.00    -0.273 OA
ATOM     23  N   ILE A  10      11.229  11.619   5.547  0.00  0.00    -0.298 N 
ATOM     24  H   ILE A  10      12.191  11.986   5.400  0.00  0.00    +0.150 HD
BRANCH  23  25
ATOM     25  CA  ILE A  10      10.487  11.101   4.407  0.00  0.00    +0.137 C 
BRANCH  25  26
ATOM     26  C   ILE A  10      11.452  10.234   3.608  0.00  0.00    +0.227 C 
ATOM     27  O   ILE A  10      12.671  10.412   3.679  0.00  0.00    -0.286 OA
ENDBRANCH  25  26
BRANCH  25  28
ATOM     28  CB  ILE A  10       9.922  12.217   3.490  0.00  0.00    +0.026 C 
ATOM     29  CG2 ILE A  10       8.932  13.074   4.265  0.00  0.00    +0.002 C 
BRANCH  28  30
ATOM     30  CG1 ILE A  10      11.052  13.075   2.925  0.00  0.00    +0.002 C 
ATOM     31  CD1 ILE A  10      10.578  14.104   1.909  0.00  0.00    +0.000 C 
ENDBRANCH  28  30
ENDBRANCH  25  28
ENDBRANCH  23  25
ENDBRANCH  20  21
BRANCH  20  32
ATOM     32  CB  PHE A   9      12.529  10.981   8.303  0.00  0.00    +0.055 C 
BRANCH  32  33
ATOM     33  CG  PHE A   9      13.683  11.389   9.165  0.00  0.00    -0.020 A 
ATOM     34  CD2 PHE A   9      13.480  11.798  10.476  0.00  0.00    -0.004 A 
ATOM     35  CE2 PHE A   9      14.549  12.196  11.271  0.00  0.00    -0.000 A 
ATOM     36  CZ  PHE A   9      15.837  12.187  10.758  0.00  0.00    -0.000 A 
ATOM     37  CE1 PHE A   9      16.056  11.780   9.451  0.00  0.00    -0.000 A 
ATOM     38  CD1 PHE A   9      14.979  11.382   8.660  0.00  0.00    -0.004 A 
ENDBRANCH  32  33
ENDBRANCH  20  32
ENDBRANCH  17  20
ENDBRANCH  15  16
ENDBRANCH  13  15
ENDBRANCH  10  11
ENDBRANCH   8  10
ENDBRANCH   5   6
BRANCH   5  39
ATOM     39  CB  ILE A   6      10.346  21.501   9.930  0.00  0.00    +0.027 C 
ATOM     40  CG2 ILE A   6       9.127  21.746  10.804  0.00  0.00    +0.002 C 
BRANCH  39  41
ATOM     41  CG1 ILE A   6      11.354  22.644  10.032  0.00  0.00    +0.002 C 
ATOM     42  CD1 ILE A   6      12.142  22.643  11.331  0.00  0.00    +0.000 C 
ENDBRANCH  39  41
ENDBRANCH   5  39
ENDBRANCH   3   5
BRANCH   1  43
ATOM     43  CA  GLY A   5      13.265  18.185   7.968  0.00  0.00    +0.176 C 
BRANCH  43  45
ATOM     44  C   GLY A   4      14.703  16.268   7.671  0.00  0.00    +0.243 C 
ATOM     45  N   GLY A   5      13.515  16.762   7.993  0.00  0.00    -0.295 N 
ATOM     46  H   GLY A   5      12.750  16.114   8.268  0.00  0.00    +0.150 HD
ATOM     47  O   GLY A   4      15.648  16.964   7.305  0.00  0.00    -0.273 OA
BRANCH  44  48
ATOM     48  CA  GLY A   4      14.826  14.764   7.766  0.00  0.00    +0.176 C 
BRANCH  48  50
ATOM     49  C   ILE A   3      15.074  13.399   5.798  0.00  0.00    +0.241 C 
ATOM     50  N   GLY A   4      15.638  14.169   6.722  0.00  0.00    -0.295 N 
ATOM     51  H   GLY A   4      16.663  14.345   6.697  0.00  0.00    +0.150 HD
ATOM     52  O   ILE A   3      13.864  13.169   5.759  0.00  0.00    -0.273 OA
BRANCH  49  53
ATOM     53  CA  ILE A   3      16.013  12.803   4.768  0.00  0.00    +0.149 C 
BRANCH  53  56
ATOM     54  C   MET A   2      16.448  10.435   4.585  0.00  0.00    +0.241 C 
ATOM     55  O   MET A   2      17.617  10.589   4.938  0.00  0.00    -0.273 OA
ATOM     56  N   ILE A   3      15.598  11.445   4.447  0.00  0.00    -0.297 N 
ATOM     57  H   ILE A   3      14.631  11.266   4.108  0.00  0.00    +0.150 HD
BRANCH  54  58
ATOM     58  CA  MET A   2      15.931   9.049   4.243  0.00  0.00    +0.149 C 
BRANCH  58  60
ATOM     59  C   LYS A   1      16.559   8.227   2.049  0.00  0.00    +0.238 C 
ATOM     60  N   MET A   2      16.890   8.513   3.299  0.00  0.00    -0.297 N 
ATOM     61  H   MET A   2      17.868   8.348   3.612  0.00  0.00    +0.150 HD
ATOM     62  O   LYS A   1      15.413   8.341   1.606  0.00  0.00    -0.274 OA
BRANCH  59  63
ATOM     63  CA  LYS A   1      17.691   7.705   1.189  0.00  0.00    +0.145 C 
BRANCH  63  64
ATOM     64  N   LYS A   1      17.175   6.724   0.260  0.00  0.00    -0.238 NA
ATOM     65  H   LYS A   1      16.172   6.760  -0.011  0.00  0.00    +0.142 HD
ENDBRANCH  63  64
BRANCH  63  66
ATOM     66  CB  LYS A   1      18.370   8.875   0.471  0.00  0.00    +0.026 C 
BRANCH  66  67
ATOM     67  CG  LYS A   1      19.090   9.789   1.454  0.00  0.00    -0.000 C 
BRANCH  67  68
ATOM     68  CD  LYS A   1      19.904  10.879   0.798  0.00  0.00    -0.024 C 
BRANCH  68  69
ATOM     69  CE  LYS A   1      20.737  11.609   1.849  0.00  0.00    -0.086 C 
BRANCH  69  70
ATOM     70  NZ  LYS A   1      21.569  12.692   1.263  0.00  0.00    +0.380 N 
ATOM     71  HZ1 LYS A   1      22.114  13.155   2.018  0.00  0.00    -0.089 HD
ATOM     72  HZ2 LYS A   1      20.952  13.390   0.801  0.00  0.00    -0.089 HD
ATOM     73  HZ3 LYS A   1      22.221  12.286   0.562  0.00  0.00    -0.089 HD
ENDBRANCH  69  70
ENDBRANCH  68  69
ENDBRANCH  67  68
ENDBRANCH  66  67
ENDBRANCH  63  66
ENDBRANCH  59  63
ENDBRANCH  58  60
BRANCH  58  74
ATOM     74  CB  MET A   2      15.888   8.183   5.503  0.00  0.00    +0.041 C 
BRANCH  74  75
ATOM     75  CG  MET A   2      15.048   6.930   5.377  0.00  0.00    +0.060 C 
BRANCH  75  76
ATOM     76  SD  MET A   2      13.411   7.188   6.082  0.00  0.00    -0.139 S 
ATOM     77  CE  MET A   2      13.783   6.968   7.821  0.00  0.00    +0.069 C 
ENDBRANCH  75  76
ENDBRANCH  74  75
ENDBRANCH  58  74
ENDBRANCH  54  58
ENDBRANCH  53  56
BRANCH  53  78
ATOM     78  CB  ILE A   3      16.048  13.699   3.514  0.00  0.00    +0.027 C 
ATOM     79  CG2 ILE A   3      17.137  13.206   2.568  0.00  0.00    +0.002 C 
BRANCH  78  80
ATOM     80  CG1 ILE A   3      14.682  13.712   2.835  0.00  0.00    +0.002 C 
ATOM     81  CD1 ILE A   3      14.611  14.624   1.618  0.00  0.00    +0.000 C 
ENDBRANCH  78  80
ENDBRANCH  53  78
ENDBRANCH  49  53
ENDBRANCH  48  50
ENDBRANCH  44  48
ENDBRANCH  43  45
ENDBRANCH   1  43
TORSDOF 36
REMARK  Name = ../refined-set-2016/1ebw/1ebw_pocket.pdb
REMARK  240 active torsions:
REMARK  status: ('A' for Active; 'I' for Inactive)
REMARK    1  A    between atoms: _1  and  _3
REMARK    2  A    between atoms: _3  and  _4
REMARK    3  A    between atoms: _3  and  _6
REMARK    4  A    between atoms: _6  and  _7
REMARK    5  A    between atoms: _7  and  _8
REMARK    6  A    between atoms: _8  and  _9
REMARK    7  A    between atoms: _18  and  _20
REMARK    8  A    between atoms: _20  and  _21
REMARK    9  A    between atoms: _20  and  _23
REMARK   10  A    between atoms: _23  and  _24
REMARK   11  A    between atoms: _27  and  _29
REMARK   12  A    between atoms: _29  and  _30
REMARK   13  A    between atoms: _29  and  _32
REMARK   14  A    between atoms: _32  and  _33
REMARK   15  A    between atoms: _36  and  _38
REMARK   16  A    between atoms: _38  and  _39
REMARK   17  A    between atoms: _38  and  _41
REMARK   18  A    between atoms: _41  and  _42
REMARK   19  A    between atoms: _45  and  _47
REMARK   20  A    between atoms: _47  and  _48
REMARK   21  A    between atoms: _47  and  _50
REMARK   22  A    between atoms: _50  and  _51
REMARK   23  A    between atoms: _54  and  _56
REMARK   24  A    between atoms: _56  and  _57
REMARK   25  A    between atoms: _56  and  _59
REMARK   26  A    between atoms: _59  and  _60
REMARK   27  A    between atoms: _63  and  _65
REMARK   28  A    between atoms: _65  and  _66
REMARK   29  A    between atoms: _68  and  _70
REMARK   30  A    between atoms: _70  and  _71
REMARK   31  A    between atoms: _74  and  _76
REMARK   32  A    between atoms: _76  and  _77
REMARK   33  A    between atoms: _76  and  _79
REMARK   34  A    between atoms: _79  and  _80
REMARK   35  A    between atoms: _83  and  _85
REMARK   36  A    between atoms: _85  and  _86
REMARK   37  A    between atoms: _85  and  _88
REMARK   38  A    between atoms: _88  and  _89
REMARK   39  A    between atoms: _92  and  _94
REMARK   40  A    between atoms: _94  and  _95
REMARK   41  A    between atoms: _94  and  _97
REMARK   42  A    between atoms: _97  and  _98
REMARK   43  A    between atoms: _101  and  _103
REMARK   44  A    between atoms: _103  and  _104
REMARK   45  A    between atoms: _103  and  _106
REMARK   46  A    between atoms: _109  and  _111
REMARK   47  A    between atoms: _111  and  _112
REMARK   48  A    between atoms: _111  and  _114
REMARK   49  A    between atoms: _114  and  _115
REMARK   50  A    between atoms: _118  and  _120
REMARK   51  A    between atoms: _120  and  _121
REMARK   52  A    between atoms: _120  and  _123
REMARK   53  A    between atoms: _123  and  _124
REMARK   54  A    between atoms: _124  and  _125
REMARK   55  A    between atoms: _125  and  _126
REMARK   56  A    between atoms: _126  and  _127
REMARK   57  A    between atoms: _131  and  _133
REMARK   58  A    between atoms: _133  and  _134
REMARK   59  A    between atoms: _133  and  _136
REMARK   60  A    between atoms: _136  and  _137
REMARK   61  A    between atoms: _137  and  _138
REMARK   62  A    between atoms: _140  and  _142
REMARK   63  A    between atoms: _142  and  _143
REMARK   64  A    between atoms: _142  and  _145
REMARK   65  A    between atoms: _145  and  _146
REMARK   66  A    between atoms: _149  and  _151
REMARK   67  A    between atoms: _151  and  _152
REMARK   68  A    between atoms: _154  and  _156
REMARK   69  A    between atoms: _156  and  _157
REMARK   70  A    between atoms: _159  and  _161
REMARK   71  A    between atoms: _161  and  _162
REMARK   72  A    between atoms: _161  and  _164
REMARK   73  A    between atoms: _164  and  _165
REMARK   74  A    between atoms: _168  and  _170
REMARK   75  A    between atoms: _170  and  _171
REMARK   76  A    between atoms: _173  and  _175
REMARK   77  A    between atoms: _175  and  _176
REMARK   78  A    between atoms: _178  and  _180
REMARK   79  A    between atoms: _180  and  _181
REMARK   80  A    between atoms: _180  and  _183
REMARK   81  A    between atoms: _183  and  _184
REMARK   82  A    between atoms: _190  and  _192
REMARK   83  A    between atoms: _192  and  _193
REMARK   84  A    between atoms: _192  and  _195
REMARK   85  A    between atoms: _195  and  _196
REMARK   86  A    between atoms: _199  and  _201
REMARK   87  A    between atoms: _201  and  _202
REMARK   88  A    between atoms: _201  and  _204
REMARK   89  A    between atoms: _207  and  _209
REMARK   90  A    between atoms: _209  and  _210
REMARK   91  A    between atoms: _209  and  _212
REMARK   92  A    between atoms: _212  and  _213
REMARK   93  A    between atoms: _216  and  _218
REMARK   94  A    between atoms: _218  and  _219
REMARK   95  A    between atoms: _218  and  _221
REMARK   96  A    between atoms: _221  and  _222
REMARK   97  A    between atoms: _226  and  _227
REMARK   98  A    between atoms: _232  and  _234
REMARK   99  A    between atoms: _234  and  _235
REMARK  100  A    between atoms: _234  and  _237
REMARK  101  A    between atoms: _240  and  _242
REMARK  102  A    between atoms: _242  and  _243
REMARK  103  A    between atoms: _242  and  _245
REMARK  104  A    between atoms: _245  and  _246
REMARK  105  A    between atoms: _251  and  _253
REMARK  106  A    between atoms: _253  and  _254
REMARK  107  A    between atoms: _253  and  _256
REMARK  108  A    between atoms: _256  and  _257
REMARK  109  A    between atoms: _260  and  _262
REMARK  110  A    between atoms: _262  and  _263
REMARK  111  A    between atoms: _262  and  _265
REMARK  112  A    between atoms: _265  and  _266
REMARK  113  A    between atoms: _269  and  _271
REMARK  114  A    between atoms: _271  and  _272
REMARK  115  A    between atoms: _274  and  _276
REMARK  116  A    between atoms: _276  and  _277
REMARK  117  A    between atoms: _276  and  _279
REMARK  118  A    between atoms: _279  and  _280
REMARK  119  A    between atoms: _280  and  _281
REMARK  120  A    between atoms: _281  and  _282
REMARK  121  A    between atoms: _291  and  _293
REMARK  122  A    between atoms: _293  and  _294
REMARK  123  A    between atoms: _293  and  _296
REMARK  124  A    between atoms: _296  and  _297
REMARK  125  A    between atoms: _297  and  _298
REMARK  126  A    between atoms: _298  and  _299
REMARK  127  A    between atoms: _308  and  _310
REMARK  128  A    between atoms: _310  and  _311
REMARK  129  A    between atoms: _310  and  _313
REMARK  130  A    between atoms: _313  and  _314
REMARK  131  A    between atoms: _317  and  _319
REMARK  132  A    between atoms: _319  and  _320
REMARK  133  A    between atoms: _319  and  _322
REMARK  134  A    between atoms: _322  and  _323
REMARK  135  A    between atoms: _326  and  _328
REMARK  136  A    between atoms: _328  and  _329
REMARK  137  A    between atoms: _328  and  _331
REMARK  138  A    between atoms: _331  and  _332
REMARK  139  A    between atoms: _335  and  _337
REMARK  140  A    between atoms: _337  and  _338
REMARK  141  A    between atoms: _337  and  _340
REMARK  142  A    between atoms: _340  and  _341
REMARK  143  A    between atoms: _344  and  _346
REMARK  144  A    between atoms: _346  and  _347
REMARK  145  A    between atoms: _346  and  _349
REMARK  146  A    between atoms: _349  and  _350
REMARK  147  A    between atoms: _353  and  _355
REMARK  148  A    between atoms: _355  and  _356
REMARK  149  A    between atoms: _358  and  _360
REMARK  150  A    between atoms: _360  and  _361
REMARK  151  A    between atoms: _364  and  _366
REMARK  152  A    between atoms: _366  and  _367
REMARK  153  A    between atoms: _366  and  _369
REMARK  154  A    between atoms: _369  and  _370
REMARK  155  A    between atoms: _373  and  _375
REMARK  156  A    between atoms: _375  and  _376
REMARK  157  A    between atoms: _375  and  _378
REMARK  158  A    between atoms: _378  and  _379
REMARK  159  A    between atoms: _382  and  _384
REMARK  160  A    between atoms: _384  and  _385
REMARK  161  A    between atoms: _384  and  _387
REMARK  162  A    between atoms: _387  and  _388
REMARK  163  A    between atoms: _391  and  _393
REMARK  164  A    between atoms: _393  and  _394
REMARK  165  A    between atoms: _393  and  _396
REMARK  166  A    between atoms: _399  and  _401
REMARK  167  A    between atoms: _401  and  _402
REMARK  168  A    between atoms: _401  and  _404
REMARK  169  A    between atoms: _404  and  _405
REMARK  170  A    between atoms: _408  and  _410
REMARK  171  A    between atoms: _410  and  _411
REMARK  172  A    between atoms: _410  and  _413
REMARK  173  A    between atoms: _413  and  _414
REMARK  174  A    between atoms: _414  and  _415
REMARK  175  A    between atoms: _415  and  _416
REMARK  176  A    between atoms: _416  and  _417
REMARK  177  A    between atoms: _421  and  _423
REMARK  178  A    between atoms: _423  and  _424
REMARK  179  A    between atoms: _423  and  _426
REMARK  180  A    between atoms: _426  and  _427
REMARK  181  A    between atoms: _427  and  _428
REMARK  182  A    between atoms: _430  and  _432
REMARK  183  A    between atoms: _432  and  _433
REMARK  184  A    between atoms: _432  and  _435
REMARK  185  A    between atoms: _435  and  _436
REMARK  186  A    between atoms: _439  and  _441
REMARK  187  A    between atoms: _441  and  _442
REMARK  188  A    between atoms: _444  and  _446
REMARK  189  A    between atoms: _446  and  _447
REMARK  190  A    between atoms: _449  and  _451
REMARK  191  A    between atoms: _451  and  _452
REMARK  192  A    between atoms: _451  and  _454
REMARK  193  A    between atoms: _454  and  _455
REMARK  194  A    between atoms: _458  and  _460
REMARK  195  A    between atoms: _460  and  _461
REMARK  196  A    between atoms: _463  and  _465
REMARK  197  A    between atoms: _465  and  _466
REMARK  198  A    between atoms: _468  and  _470
REMARK  199  A    between atoms: _470  and  _471
REMARK  200  A    between atoms: _470  and  _473
REMARK  201  A    between atoms: _473  and  _474
REMARK  202  A    between atoms: _480  and  _482
REMARK  203  A    between atoms: _482  and  _483
REMARK  204  A    between atoms: _482  and  _485
REMARK  205  A    between atoms: _485  and  _486
REMARK  206  A    between atoms: _489  and  _491
REMARK  207  A    between atoms: _491  and  _492
REMARK  208  A    between atoms: _491  and  _494
REMARK  209  A    between atoms: _497  and  _499
REMARK  210  A    between atoms: _499  and  _500
REMARK  211  A    between atoms: _499  and  _502
REMARK  212  A    between atoms: _502  and  _503
REMARK  213  A    between atoms: _506  and  _508
REMARK  214  A    between atoms: _508  and  _509
REMARK  215  A    between atoms: _508  and  _511
REMARK  216  A    between atoms: _511  and  _512
REMARK  217  A    between atoms: _516  and  _517
REMARK  218  A    between atoms: _522  and  _524
REMARK  219  A    between atoms: _524  and  _525
REMARK  220  A    between atoms: _524  and  _527
REMARK  221  A    between atoms: _530  and  _532
REMARK  222  A    between atoms: _532  and  _533
REMARK  223  A    between atoms: _532  and  _535
REMARK  224  A    between atoms: _535  and  _536
REMARK  225  A    between atoms: _541  and  _543
REMARK  226  A    between atoms: _543  and  _544
REMARK  227  A    between atoms: _543  and  _546
REMARK  228  A    between atoms: _546  and  _547
REMARK  229  A    between atoms: _550  and  _552
REMARK  230  A    between atoms: _552  and  _553
REMARK  231  A    between atoms: _552  and  _555
REMARK  232  A    between atoms: _555  and  _556
REMARK  233  A    between atoms: _559  and  _561
REMARK  234  A    between atoms: _561  and  _562
REMARK  235  A    between atoms: _564  and  _566
REMARK  236  A    between atoms: _566  and  _567
REMARK  237  A    between atoms: _566  and  _569
REMARK  238  A    between atoms: _569  and  _570
REMARK  239  A    between atoms: _570  and  _571
REMARK  240  A    between atoms: _571  and  _572
REMARK                            x       y       z     vdW  Elec       q    Type
REMARK                         _______ _______ _______ _____ _____    ______ ____
ROOT
ATOM      1  CA  VAL A   1      13.079   9.542  -1.302  0.00  0.00    +0.133 C 
ENDROOT
BRANCH   1   2
ATOM      2  CB  VAL A   1      13.703  10.962  -1.292  0.00  0.00    +0.023 C 
ATOM      3  CG2 VAL A   1      12.851  11.894  -0.454  0.00  0.00    +0.002 C 
ATOM      4  CG1 VAL A   1      15.128  10.906  -0.754  0.00  0.00    +0.002 C 
ENDBRANCH   1   2
BRANCH   1   5
ATOM      5  N   VAL A   1      12.940   9.010   0.049  0.00  0.00    -0.239 NA
ATOM      6  H   VAL A   1      13.781   8.662   0.552  0.00  0.00    +0.142 HD
ENDBRANCH   1   5
BRANCH   1   7
ATOM      7  C   VAL A   1      13.954   8.640  -2.166  0.00  0.00    +0.224 C 
ATOM      8  O   VAL A   1      14.655   7.769  -1.653  0.00  0.00    -0.287 OA
ENDBRANCH   1   7
TORSDOF 3
REMARK  Name = ../refined-set-2016/1ebw/1ebw_pocket.pdb
REMARK  240 active torsions:
REMARK  status: ('A' for Active; 'I' for Inactive)
REMARK    1  A    between atoms: _1  and  _3
REMARK    2  A    between atoms: _3  and  _4
REMARK    3  A    between atoms: _3  and  _6
REMARK    4  A    between atoms: _6  and  _7
REMARK    5  A    between atoms: _7  and  _8
REMARK    6  A    between atoms: _8  and  _9
REMARK    7  A    between atoms: _18  and  _20
REMARK    8  A    between atoms: _20  and  _21
REMARK    9  A    between atoms: _20  and  _23
REMARK   10  A    between atoms: _23  and  _24
REMARK   11  A    between atoms: _27  and  _29
REMARK   12  A    between atoms: _29  and  _30
REMARK   13  A    between atoms: _29  and  _32
REMARK   14  A    between atoms: _32  and  _33
REMARK   15  A    between atoms: _36  and  _38
REMARK   16  A    between atoms: _38  and  _39
REMARK   17  A    between atoms: _38  and  _41
REMARK   18  A    between atoms: _41  and  _42
REMARK   19  A    between atoms: _45  and  _47
REMARK   20  A    between atoms: _47  and  _48
REMARK   21  A    between atoms: _47  and  _50
REMARK   22  A    between atoms: _50  and  _51
REMARK   23  A    between atoms: _54  and  _56
REMARK   24  A    between atoms: _56  and  _57
REMARK   25  A    between atoms: _56  and  _59
REMARK   26  A    between atoms: _59  and  _60
REMARK   27  A    between atoms: _63  and  _65
REMARK   28  A    between atoms: _65  and  _66
REMARK   29  A    between atoms: _68  and  _70
REMARK   30  A    between atoms: _70  and  _71
REMARK   31  A    between atoms: _74  and  _76
REMARK   32  A    between atoms: _76  and  _77
REMARK   33  A    between atoms: _76  and  _79
REMARK   34  A    between atoms: _79  and  _80
REMARK   35  A    between atoms: _83  and  _85
REMARK   36  A    between atoms: _85  and  _86
REMARK   37  A    between atoms: _85  and  _88
REMARK   38  A    between atoms: _88  and  _89
REMARK   39  A    between atoms: _92  and  _94
REMARK   40  A    between atoms: _94  and  _95
REMARK   41  A    between atoms: _94  and  _97
REMARK   42  A    between atoms: _97  and  _98
REMARK   43  A    between atoms: _101  and  _103
REMARK   44  A    between atoms: _103  and  _104
REMARK   45  A    between atoms: _103  and  _106
REMARK   46  A    between atoms: _109  and  _111
REMARK   47  A    between atoms: _111  and  _112
REMARK   48  A    between atoms: _111  and  _114
REMARK   49  A    between atoms: _114  and  _115
REMARK   50  A    between atoms: _118  and  _120
REMARK   51  A    between atoms: _120  and  _121
REMARK   52  A    between atoms: _120  and  _123
REMARK   53  A    between atoms: _123  and  _124
REMARK   54  A    between atoms: _124  and  _125
REMARK   55  A    between atoms: _125  and  _126
REMARK   56  A    between atoms: _126  and  _127
REMARK   57  A    between atoms: _131  and  _133
REMARK   58  A    between atoms: _133  and  _134
REMARK   59  A    between atoms: _133  and  _136
REMARK   60  A    between atoms: _136  and  _137
REMARK   61  A    between atoms: _137  and  _138
REMARK   62  A    between atoms: _140  and  _142
REMARK   63  A    between atoms: _142  and  _143
REMARK   64  A    between atoms: _142  and  _145
REMARK   65  A    between atoms: _145  and  _146
REMARK   66  A    between atoms: _149  and  _151
REMARK   67  A    between atoms: _151  and  _152
REMARK   68  A    between atoms: _154  and  _156
REMARK   69  A    between atoms: _156  and  _157
REMARK   70  A    between atoms: _159  and  _161
REMARK   71  A    between atoms: _161  and  _162
REMARK   72  A    between atoms: _161  and  _164
REMARK   73  A    between atoms: _164  and  _165
REMARK   74  A    between atoms: _168  and  _170
REMARK   75  A    between atoms: _170  and  _171
REMARK   76  A    between atoms: _173  and  _175
REMARK   77  A    between atoms: _175  and  _176
REMARK   78  A    between atoms: _178  and  _180
REMARK   79  A    between atoms: _180  and  _181
REMARK   80  A    between atoms: _180  and  _183
REMARK   81  A    between atoms: _183  and  _184
REMARK   82  A    between atoms: _190  and  _192
REMARK   83  A    between atoms: _192  and  _193
REMARK   84  A    between atoms: _192  and  _195
REMARK   85  A    between atoms: _195  and  _196
REMARK   86  A    between atoms: _199  and  _201
REMARK   87  A    between atoms: _201  and  _202
REMARK   88  A    between atoms: _201  and  _204
REMARK   89  A    between atoms: _207  and  _209
REMARK   90  A    between atoms: _209  and  _210
REMARK   91  A    between atoms: _209  and  _212
REMARK   92  A    between atoms: _212  and  _213
REMARK   93  A    between atoms: _216  and  _218
REMARK   94  A    between atoms: _218  and  _219
REMARK   95  A    between atoms: _218  and  _221
REMARK   96  A    between atoms: _221  and  _222
REMARK   97  A    between atoms: _226  and  _227
REMARK   98  A    between atoms: _232  and  _234
REMARK   99  A    between atoms: _234  and  _235
REMARK  100  A    between atoms: _234  and  _237
REMARK  101  A    between atoms: _240  and  _242
REMARK  102  A    between atoms: _242  and  _243
REMARK  103  A    between atoms: _242  and  _245
REMARK  104  A    between atoms: _245  and  _246
REMARK  105  A    between atoms: _251  and  _253
REMARK  106  A    between atoms: _253  and  _254
REMARK  107  A    between atoms: _253  and  _256
REMARK  108  A    between atoms: _256  and  _257
REMARK  109  A    between atoms: _260  and  _262
REMARK  110  A    between atoms: _262  and  _263
REMARK  111  A    between atoms: _262  and  _265
REMARK  112  A    between atoms: _265  and  _266
REMARK  113  A    between atoms: _269  and  _271
REMARK  114  A    between atoms: _271  and  _272
REMARK  115  A    between atoms: _274  and  _276
REMARK  116  A    between atoms: _276  and  _277
REMARK  117  A    between atoms: _276  and  _279
REMARK  118  A    between atoms: _279  and  _280
REMARK  119  A    between atoms: _280  and  _281
REMARK  120  A    between atoms: _281  and  _282
REMARK  121  A    between atoms: _291  and  _293
REMARK  122  A    between atoms: _293  and  _294
REMARK  123  A    between atoms: _293  and  _296
REMARK  124  A    between atoms: _296  and  _297
REMARK  125  A    between atoms: _297  and  _298
REMARK  126  A    between atoms: _298  and  _299
REMARK  127  A    between atoms: _308  and  _310
REMARK  128  A    between atoms: _310  and  _311
REMARK  129  A    between atoms: _310  and  _313
REMARK  130  A    between atoms: _313  and  _314
REMARK  131  A    between atoms: _317  and  _319
REMARK  132  A    between atoms: _319  and  _320
REMARK  133  A    between atoms: _319  and  _322
REMARK  134  A    between atoms: _322  and  _323
REMARK  135  A    between atoms: _326  and  _328
REMARK  136  A    between atoms: _328  and  _329
REMARK  137  A    between atoms: _328  and  _331
REMARK  138  A    between atoms: _331  and  _332
REMARK  139  A    between atoms: _335  and  _337
REMARK  140  A    between atoms: _337  and  _338
REMARK  141  A    between atoms: _337  and  _340
REMARK  142  A    between atoms: _340  and  _341
REMARK  143  A    between atoms: _344  and  _346
REMARK  144  A    between atoms: _346  and  _347
REMARK  145  A    between atoms: _346  and  _349
REMARK  146  A    between atoms: _349  and  _350
REMARK  147  A    between atoms: _353  and  _355
REMARK  148  A    between atoms: _355  and  _356
REMARK  149  A    between atoms: _358  and  _360
REMARK  150  A    between atoms: _360  and  _361
REMARK  151  A    between atoms: _364  and  _366
REMARK  152  A    between atoms: _366  and  _367
REMARK  153  A    between atoms: _366  and  _369
REMARK  154  A    between atoms: _369  and  _370
REMARK  155  A    between atoms: _373  and  _375
REMARK  156  A    between atoms: _375  and  _376
REMARK  157  A    between atoms: _375  and  _378
REMARK  158  A    between atoms: _378  and  _379
REMARK  159  A    between atoms: _382  and  _384
REMARK  160  A    between atoms: _384  and  _385
REMARK  161  A    between atoms: _384  and  _387
REMARK  162  A    between atoms: _387  and  _388
REMARK  163  A    between atoms: _391  and  _393
REMARK  164  A    between atoms: _393  and  _394
REMARK  165  A    between atoms: _393  and  _396
REMARK  166  A    between atoms: _399  and  _401
REMARK  167  A    between atoms: _401  and  _402
REMARK  168  A    between atoms: _401  and  _404
REMARK  169  A    between atoms: _404  and  _405
REMARK  170  A    between atoms: _408  and  _410
REMARK  171  A    between atoms: _410  and  _411
REMARK  172  A    between atoms: _410  and  _413
REMARK  173  A    between atoms: _413  and  _414
REMARK  174  A    between atoms: _414  and  _415
REMARK  175  A    between atoms: _415  and  _416
REMARK  176  A    between atoms: _416  and  _417
REMARK  177  A    between atoms: _421  and  _423
REMARK  178  A    between atoms: _423  and  _424
REMARK  179  A    between atoms: _423  and  _426
REMARK  180  A    between atoms: _426  and  _427
REMARK  181  A    between atoms: _427  and  _428
REMARK  182  A    between atoms: _430  and  _432
REMARK  183  A    between atoms: _432  and  _433
REMARK  184  A    between atoms: _432  and  _435
REMARK  185  A    between atoms: _435  and  _436
REMARK  186  A    between atoms: _439  and  _441
REMARK  187  A    between atoms: _441  and  _442
REMARK  188  A    between atoms: _444  and  _446
REMARK  189  A    between atoms: _446  and  _447
REMARK  190  A    between atoms: _449  and  _451
REMARK  191  A    between atoms: _451  and  _452
REMARK  192  A    between atoms: _451  and  _454
REMARK  193  A    between atoms: _454  and  _455
REMARK  194  A    between atoms: _458  and  _460
REMARK  195  A    between atoms: _460  and  _461
REMARK  196  A    between atoms: _463  and  _465
REMARK  197  A    between atoms: _465  and  _466
REMARK  198  A    between atoms: _468  and  _470
REMARK  199  A    between atoms: _470  and  _471
REMARK  200  A    between atoms: _470  and  _473
REMARK  201  A    between atoms: _473  and  _474
REMARK  202  A    between atoms: _480  and  _482
REMARK  203  A    between atoms: _482  and  _483
REMARK  204  A    between atoms: _482  and  _485
REMARK  205  A    between atoms: _485  and  _486
REMARK  206  A    between atoms: _489  and  _491
REMARK  207  A    between atoms: _491  and  _492
REMARK  208  A    between atoms: _491  and  _494
REMARK  209  A    between atoms: _497  and  _499
REMARK  210  A    between atoms: _499  and  _500
REMARK  211  A    between atoms: _499  and  _502
REMARK  212  A    between atoms: _502  and  _503
REMARK  213  A    between atoms: _506  and  _508
REMARK  214  A    between atoms: _508  and  _509
REMARK  215  A    between atoms: _508  and  _511
REMARK  216  A    between atoms: _511  and  _512
REMARK  217  A    between atoms: _516  and  _517
REMARK  218  A    between atoms: _522  and  _524
REMARK  219  A    between atoms: _524  and  _525
REMARK  220  A    between atoms: _524  and  _527
REMARK  221  A    between atoms: _530  and  _532
REMARK  222  A    between atoms: _532  and  _533
REMARK  223  A    between atoms: _532  and  _535
REMARK  224  A    between atoms: _535  and  _536
REMARK  225  A    between atoms: _541  and  _543
REMARK  226  A    between atoms: _543  and  _544
REMARK  227  A    between atoms: _543  and  _546
REMARK  228  A    between atoms: _546  and  _547
REMARK  229  A    between atoms: _550  and  _552
REMARK  230  A    between atoms: _552  and  _553
REMARK  231  A    between atoms: _552  and  _555
REMARK  232  A    between atoms: _555  and  _556
REMARK  233  A    between atoms: _559  and  _561
REMARK  234  A    between atoms: _561  and  _562
REMARK  235  A    between atoms: _564  and  _566
REMARK  236  A    between atoms: _566  and  _567
REMARK  237  A    between atoms: _566  and  _569
REMARK  238  A    between atoms: _569  and  _570
REMARK  239  A    between atoms: _570  and  _571
REMARK  240  A    between atoms: _571  and  _572
REMARK                            x       y       z     vdW  Elec       q    Type
REMARK                         _______ _______ _______ _____ _____    ______ ____
ROOT
ATOM      1  CA  LEU A   1      16.317  13.330  -4.781  0.00  0.00    +0.133 C 
ENDROOT
BRANCH   1   2
ATOM      2  N   LEU A   1      17.179  14.249  -5.509  0.00  0.00    -0.239 NA
ATOM      3  H   LEU A   1      17.211  15.249  -5.227  0.00  0.00    +0.142 HD
ENDBRANCH   1   2
BRANCH   1   4
ATOM      4  C   LEU A   1      14.887  13.568  -5.235  0.00  0.00    +0.224 C 
ATOM      5  O   LEU A   1      14.512  14.695  -5.564  0.00  0.00    -0.287 OA
ENDBRANCH   1   4
BRANCH   1   6
ATOM      6  CB  LEU A   1      16.435  13.584  -3.277  0.00  0.00    +0.025 C 
BRANCH   6   7
ATOM      7  CG  LEU A   1      17.866  13.517  -2.735  0.00  0.00    +0.002 C 
ATOM      8  CD2 LEU A   1      17.861  13.843  -1.248  0.00  0.00    +0.000 C 
ATOM      9  CD1 LEU A   1      18.442  12.117  -2.979  0.00  0.00    +0.000 C 
ENDBRANCH   6   7
ENDBRANCH   1   6
TORSDOF 4
REMARK  Name = ../refined-set-2016/1ebw/1ebw_pocket.pdb
REMARK  240 active torsions:
REMARK  status: ('A' for Active; 'I' for Inactive)
REMARK    1  A    between atoms: _1  and  _3
REMARK    2  A    between atoms: _3  and  _4
REMARK    3  A    between atoms: _3  and  _6
REMARK    4  A    between atoms: _6  and  _7
REMARK    5  A    between atoms: _7  and  _8
REMARK    6  A    between atoms: _8  and  _9
REMARK    7  A    between atoms: _18  and  _20
REMARK    8  A    between atoms: _20  and  _21
REMARK    9  A    between atoms: _20  and  _23
REMARK   10  A    between atoms: _23  and  _24
REMARK   11  A    between atoms: _27  and  _29
REMARK   12  A    between atoms: _29  and  _30
REMARK   13  A    between atoms: _29  and  _32
REMARK   14  A    between atoms: _32  and  _33
REMARK   15  A    between atoms: _36  and  _38
REMARK   16  A    between atoms: _38  and  _39
REMARK   17  A    between atoms: _38  and  _41
REMARK   18  A    between atoms: _41  and  _42
REMARK   19  A    between atoms: _45  and  _47
REMARK   20  A    between atoms: _47  and  _48
REMARK   21  A    between atoms: _47  and  _50
REMARK   22  A    between atoms: _50  and  _51
REMARK   23  A    between atoms: _54  and  _56
REMARK   24  A    between atoms: _56  and  _57
REMARK   25  A    between atoms: _56  and  _59
REMARK   26  A    between atoms: _59  and  _60
REMARK   27  A    between atoms: _63  and  _65
REMARK   28  A    between atoms: _65  and  _66
REMARK   29  A    between atoms: _68  and  _70
REMARK   30  A    between atoms: _70  and  _71
REMARK   31  A    between atoms: _74  and  _76
REMARK   32  A    between atoms: _76  and  _77
REMARK   33  A    between atoms: _76  and  _79
REMARK   34  A    between atoms: _79  and  _80
REMARK   35  A    between atoms: _83  and  _85
REMARK   36  A    between atoms: _85  and  _86
REMARK   37  A    between atoms: _85  and  _88
REMARK   38  A    between atoms: _88  and  _89
REMARK   39  A    between atoms: _92  and  _94
REMARK   40  A    between atoms: _94  and  _95
REMARK   41  A    between atoms: _94  and  _97
REMARK   42  A    between atoms: _97  and  _98
REMARK   43  A    between atoms: _101  and  _103
REMARK   44  A    between atoms: _103  and  _104
REMARK   45  A    between atoms: _103  and  _106
REMARK   46  A    between atoms: _109  and  _111
REMARK   47  A    between atoms: _111  and  _112
REMARK   48  A    between atoms: _111  and  _114
REMARK   49  A    between atoms: _114  and  _115
REMARK   50  A    between atoms: _118  and  _120
REMARK   51  A    between atoms: _120  and  _121
REMARK   52  A    between atoms: _120  and  _123
REMARK   53  A    between atoms: _123  and  _124
REMARK   54  A    between atoms: _124  and  _125
REMARK   55  A    between atoms: _125  and  _126
REMARK   56  A    between atoms: _126  and  _127
REMARK   57  A    between atoms: _131  and  _133
REMARK   58  A    between atoms: _133  and  _134
REMARK   59  A    between atoms: _133  and  _136
REMARK   60  A    between atoms: _136  and  _137
REMARK   61  A    between atoms: _137  and  _138
REMARK   62  A    between atoms: _140  and  _142
REMARK   63  A    between atoms: _142  and  _143
REMARK   64  A    between atoms: _142  and  _145
REMARK   65  A    between atoms: _145  and  _146
REMARK   66  A    between atoms: _149  and  _151
REMARK   67  A    between atoms: _151  and  _152
REMARK   68  A    between atoms: _154  and  _156
REMARK   69  A    between atoms: _156  and  _157
REMARK   70  A    between atoms: _159  and  _161
REMARK   71  A    between atoms: _161  and  _162
REMARK   72  A    between atoms: _161  and  _164
REMARK   73  A    between atoms: _164  and  _165
REMARK   74  A    between atoms: _168  and  _170
REMARK   75  A    between atoms: _170  and  _171
REMARK   76  A    between atoms: _173  and  _175
REMARK   77  A    between atoms: _175  and  _176
REMARK   78  A    between atoms: _178  and  _180
REMARK   79  A    between atoms: _180  and  _181
REMARK   80  A    between atoms: _180  and  _183
REMARK   81  A    between atoms: _183  and  _184
REMARK   82  A    between atoms: _190  and  _192
REMARK   83  A    between atoms: _192  and  _193
REMARK   84  A    between atoms: _192  and  _195
REMARK   85  A    between atoms: _195  and  _196
REMARK   86  A    between atoms: _199  and  _201
REMARK   87  A    between atoms: _201  and  _202
REMARK   88  A    between atoms: _201  and  _204
REMARK   89  A    between atoms: _207  and  _209
REMARK   90  A    between atoms: _209  and  _210
REMARK   91  A    between atoms: _209  and  _212
REMARK   92  A    between atoms: _212  and  _213
REMARK   93  A    between atoms: _216  and  _218
REMARK   94  A    between atoms: _218  and  _219
REMARK   95  A    between atoms: _218  and  _221
REMARK   96  A    between atoms: _221  and  _222
REMARK   97  A    between atoms: _226  and  _227
REMARK   98  A    between atoms: _232  and  _234
REMARK   99  A    between atoms: _234  and  _235
REMARK  100  A    between atoms: _234  and  _237
REMARK  101  A    between atoms: _240  and  _242
REMARK  102  A    between atoms: _242  and  _243
REMARK  103  A    between atoms: _242  and  _245
REMARK  104  A    between atoms: _245  and  _246
REMARK  105  A    between atoms: _251  and  _253
REMARK  106  A    between atoms: _253  and  _254
REMARK  107  A    between atoms: _253  and  _256
REMARK  108  A    between atoms: _256  and  _257
REMARK  109  A    between atoms: _260  and  _262
REMARK  110  A    between atoms: _262  and  _263
REMARK  111  A    between atoms: _262  and  _265
REMARK  112  A    between atoms: _265  and  _266
REMARK  113  A    between atoms: _269  and  _271
REMARK  114  A    between atoms: _271  and  _272
REMARK  115  A    between atoms: _274  and  _276
REMARK  116  A    between atoms: _276  and  _277
REMARK  117  A    between atoms: _276  and  _279
REMARK  118  A    between atoms: _279  and  _280
REMARK  119  A    between atoms: _280  and  _281
REMARK  120  A    between atoms: _281  and  _282
REMARK  121  A    between atoms: _291  and  _293
REMARK  122  A    between atoms: _293  and  _294
REMARK  123  A    between atoms: _293  and  _296
REMARK  124  A    between atoms: _296  and  _297
REMARK  125  A    between atoms: _297  and  _298
REMARK  126  A    between atoms: _298  and  _299
REMARK  127  A    between atoms: _308  and  _310
REMARK  128  A    between atoms: _310  and  _311
REMARK  129  A    between atoms: _310  and  _313
REMARK  130  A    between atoms: _313  and  _314
REMARK  131  A    between atoms: _317  and  _319
REMARK  132  A    between atoms: _319  and  _320
REMARK  133  A    between atoms: _319  and  _322
REMARK  134  A    between atoms: _322  and  _323
REMARK  135  A    between atoms: _326  and  _328
REMARK  136  A    between atoms: _328  and  _329
REMARK  137  A    between atoms: _328  and  _331
REMARK  138  A    between atoms: _331  and  _332
REMARK  139  A    between atoms: _335  and  _337
REMARK  140  A    between atoms: _337  and  _338
REMARK  141  A    between atoms: _337  and  _340
REMARK  142  A    between atoms: _340  and  _341
REMARK  143  A    between atoms: _344  and  _346
REMARK  144  A    between atoms: _346  and  _347
REMARK  145  A    between atoms: _346  and  _349
REMARK  146  A    between atoms: _349  and  _350
REMARK  147  A    between atoms: _353  and  _355
REMARK  148  A    between atoms: _355  and  _356
REMARK  149  A    between atoms: _358  and  _360
REMARK  150  A    between atoms: _360  and  _361
REMARK  151  A    between atoms: _364  and  _366
REMARK  152  A    between atoms: _366  and  _367
REMARK  153  A    between atoms: _366  and  _369
REMARK  154  A    between atoms: _369  and  _370
REMARK  155  A    between atoms: _373  and  _375
REMARK  156  A    between atoms: _375  and  _376
REMARK  157  A    between atoms: _375  and  _378
REMARK  158  A    between atoms: _378  and  _379
REMARK  159  A    between atoms: _382  and  _384
REMARK  160  A    between atoms: _384  and  _385
REMARK  161  A    between atoms: _384  and  _387
REMARK  162  A    between atoms: _387  and  _388
REMARK  163  A    between atoms: _391  and  _393
REMARK  164  A    between atoms: _393  and  _394
REMARK  165  A    between atoms: _393  and  _396
REMARK  166  A    between atoms: _399  and  _401
REMARK  167  A    between atoms: _401  and  _402
REMARK  168  A    between atoms: _401  and  _404
REMARK  169  A    between atoms: _404  and  _405
REMARK  170  A    between atoms: _408  and  _410
REMARK  171  A    between atoms: _410  and  _411
REMARK  172  A    between atoms: _410  and  _413
REMARK  173  A    between atoms: _413  and  _414
REMARK  174  A    between atoms: _414  and  _415
REMARK  175  A    between atoms: _415  and  _416
REMARK  176  A    between atoms: _416  and  _417
REMARK  177  A    between atoms: _421  and  _423
REMARK  178  A    between atoms: _423  and  _424
REMARK  179  A    between atoms: _423  and  _426
REMARK  180  A    between atoms: _426  and  _427
REMARK  181  A    between atoms: _427  and  _428
REMARK  182  A    between atoms: _430  and  _432
REMARK  183  A    between atoms: _432  and  _433
REMARK  184  A    between atoms: _432  and  _435
REMARK  185  A    between atoms: _435  and  _436
REMARK  186  A    between atoms: _439  and  _441
REMARK  187  A    between atoms: _441  and  _442
REMARK  188  A    between atoms: _444  and  _446
REMARK  189  A    between atoms: _446  and  _447
REMARK  190  A    between atoms: _449  and  _451
REMARK  191  A    between atoms: _451  and  _452
REMARK  192  A    between atoms: _451  and  _454
REMARK  193  A    between atoms: _454  and  _455
REMARK  194  A    between atoms: _458  and  _460
REMARK  195  A    between atoms: _460  and  _461
REMARK  196  A    between atoms: _463  and  _465
REMARK  197  A    between atoms: _465  and  _466
REMARK  198  A    between atoms: _468  and  _470
REMARK  199  A    between atoms: _470  and  _471
REMARK  200  A    between atoms: _470  and  _473
REMARK  201  A    between atoms: _473  and  _474
REMARK  202  A    between atoms: _480  and  _482
REMARK  203  A    between atoms: _482  and  _483
REMARK  204  A    between atoms: _482  and  _485
REMARK  205  A    between atoms: _485  and  _486
REMARK  206  A    between atoms: _489  and  _491
REMARK  207  A    between atoms: _491  and  _492
REMARK  208  A    between atoms: _491  and  _494
REMARK  209  A    between atoms: _497  and  _499
REMARK  210  A    between atoms: _499  and  _500
REMARK  211  A    between atoms: _499  and  _502
REMARK  212  A    between atoms: _502  and  _503
REMARK  213  A    between atoms: _506  and  _508
REMARK  214  A    between atoms: _508  and  _509
REMARK  215  A    between atoms: _508  and  _511
REMARK  216  A    between atoms: _511  and  _512
REMARK  217  A    between atoms: _516  and  _517
REMARK  218  A    between atoms: _522  and  _524
REMARK  219  A    between atoms: _524  and  _525
REMARK  220  A    between atoms: _524  and  _527
REMARK  221  A    between atoms: _530  and  _532
REMARK  222  A    between atoms: _532  and  _533
REMARK  223  A    between atoms: _532  and  _535
REMARK  224  A    between atoms: _535  and  _536
REMARK  225  A    between atoms: _541  and  _543
REMARK  226  A    between atoms: _543  and  _544
REMARK  227  A    between atoms: _543  and  _546
REMARK  228  A    between atoms: _546  and  _547
REMARK  229  A    between atoms: _550  and  _552
REMARK  230  A    between atoms: _552  and  _553
REMARK  231  A    between atoms: _552  and  _555
REMARK  232  A    between atoms: _555  and  _556
REMARK  233  A    between atoms: _559  and  _561
REMARK  234  A    between atoms: _561  and  _562
REMARK  235  A    between atoms: _564  and  _566
REMARK  236  A    between atoms: _566  and  _567
REMARK  237  A    between atoms: _566  and  _569
REMARK  238  A    between atoms: _569  and  _570
REMARK  239  A    between atoms: _570  and  _571
REMARK  240  A    between atoms: _571  and  _572
REMARK                            x       y       z     vdW  Elec       q    Type
REMARK                         _______ _______ _______ _____ _____    ______ ____
ROOT
ATOM      1  CA  ILE A   5      13.977  22.410  -3.385  0.00  0.00    +0.149 C 
ENDROOT
BRANCH   1   3
ATOM      2  C   ASN A   4      11.877  22.463  -4.633  0.00  0.00    +0.241 C 
ATOM      3  N   ILE A   5      12.910  21.776  -4.156  0.00  0.00    -0.297 N 
ATOM      4  H   ILE A   5      12.960  20.753  -4.338  0.00  0.00    +0.150 HD
ATOM      5  O   ASN A   4      11.758  23.682  -4.500  0.00  0.00    -0.273 OA
BRANCH   2   6
ATOM      6  CA  ASN A   4      10.813  21.656  -5.365  0.00  0.00    +0.158 C 
BRANCH   6   9
ATOM      7  C   VAL A   3       9.203  21.618  -3.562  0.00  0.00    +0.241 C 
ATOM      8  O   VAL A   3       9.937  20.902  -2.881  0.00  0.00    -0.273 OA
ATOM      9  N   ASN A   4       9.529  22.026  -4.785  0.00  0.00    -0.297 N 
ATOM     10  H   ASN A   4       8.864  22.612  -5.330  0.00  0.00    +0.150 HD
BRANCH   7  11
ATOM     11  CA  VAL A   3       7.857  22.076  -3.017  0.00  0.00    +0.149 C 
BRANCH  11  13
ATOM     12  C   PRO A   2       6.154  20.949  -1.669  0.00  0.00    +0.241 C 
ATOM     13  N   VAL A   3       7.436  21.175  -1.945  0.00  0.00    -0.297 N 
ATOM     14  H   VAL A   3       8.164  20.694  -1.379  0.00  0.00    +0.150 HD
ATOM     15  O   PRO A   2       5.229  21.480  -2.292  0.00  0.00    -0.273 OA
BRANCH  12  21
ATOM     16  C   THR A   1       7.182  18.018  -1.198  0.00  0.00    +0.244 C 
ATOM     17  N   PRO A   2       6.916  18.985  -0.306  0.00  0.00    -0.272 N 
ATOM     18  CD  PRO A   2       7.449  19.053   1.066  0.00  0.00    +0.094 C 
ATOM     19  CG  PRO A   2       6.312  19.714   1.807  0.00  0.00    +0.024 C 
ATOM     20  CB  PRO A   2       5.839  20.735   0.829  0.00  0.00    +0.031 C 
ATOM     21  CA  PRO A   2       5.869  19.994  -0.507  0.00  0.00    +0.152 C 
ATOM     22  O   THR A   1       6.558  17.913  -2.251  0.00  0.00    -0.273 OA
BRANCH  16  23
ATOM     23  CA  THR A   1       8.297  17.041  -0.856  0.00  0.00    +0.172 C 
BRANCH  23  24
ATOM     24  N   THR A   1       7.960  15.735  -1.403  0.00  0.00    -0.236 NA
ATOM     25  H   THR A   1       8.327  15.455  -2.335  0.00  0.00    +0.142 HD
ENDBRANCH  23  24
BRANCH  23  26
ATOM     26  CB  THR A   1       9.610  17.593  -1.438  0.00  0.00    +0.135 C 
ATOM     27  CG2 THR A   1       9.551  17.634  -2.955  0.00  0.00    +0.034 C 
BRANCH  26  28
ATOM     28  OG1 THR A   1       9.827  18.920  -0.940  0.00  0.00    -0.383 OA
ATOM     29  HG1 THR A   1       9.073  19.501  -1.212  0.00  0.00    +0.210 HD
ENDBRANCH  26  28
ENDBRANCH  23  26
ENDBRANCH  16  23
ENDBRANCH  12  21
ENDBRANCH  11  13
BRANCH  11  30
ATOM     30  CB  VAL A   3       8.042  23.535  -2.514  0.00  0.00    +0.027 C 
ATOM     31  CG2 VAL A   3       9.078  23.572  -1.407  0.00  0.00    +0.002 C 
ATOM     32  CG1 VAL A   3       6.721  24.106  -2.019  0.00  0.00    +0.002 C 
ENDBRANCH  11  30
ENDBRANCH   7  11
ENDBRANCH   6   9
BRANCH   6  33
ATOM     33  CB  ASN A   4      10.837  21.951  -6.869  0.00  0.00    +0.114 C 
BRANCH  33  34
ATOM     34  CG  ASN A   4       9.898  21.050  -7.652  0.00  0.00    +0.222 C 
ATOM     35  OD1 ASN A   4       9.858  19.841  -7.435  0.00  0.00    -0.275 OA
ATOM     36  ND2 ASN A   4       9.146  21.633  -8.580  0.00  0.00    -0.329 N 
ATOM     37 HD21 ASN A   4       9.210  22.660  -8.732  0.00  0.00    +0.145 HD
ATOM     38 HD22 ASN A   4       8.493  21.062  -9.154  0.00  0.00    +0.145 HD
ENDBRANCH  33  34
ENDBRANCH   6  33
ENDBRANCH   2   6
ENDBRANCH   1   3
BRANCH   1  39
ATOM     39  C   ILE A   5      15.368  22.260  -3.992  0.00  0.00    +0.241 C 
ATOM     40  N   ILE A   6      16.047  23.383  -4.204  0.00  0.00    -0.297 N 
ATOM     41  H   ILE A   6      15.601  24.298  -3.989  0.00  0.00    +0.150 HD
ATOM     42  O   ILE A   5      15.813  21.148  -4.264  0.00  0.00    -0.273 OA
BRANCH  40  43
ATOM     43  CA  ILE A   6      17.406  23.355  -4.732  0.00  0.00    +0.149 C 
BRANCH  43  44
ATOM     44  C   ILE A   6      18.294  23.553  -3.510  0.00  0.00    +0.241 C 
ATOM     45  O   ILE A   6      18.337  24.642  -2.940  0.00  0.00    -0.273 OA
ATOM     46  N   GLY A   7      18.979  22.488  -3.103  0.00  0.00    -0.295 N 
ATOM     47  H   GLY A   7      18.901  21.596  -3.632  0.00  0.00    +0.150 HD
BRANCH  46  48
ATOM     48  CA  GLY A   7      19.834  22.551  -1.931  0.00  0.00    +0.176 C 
BRANCH  48  49
ATOM     49  C   GLY A   7      21.276  22.940  -2.179  0.00  0.00    +0.243 C 
ATOM     50  N   ARG A   8      22.054  22.983  -1.103  0.00  0.00    -0.298 N 
ATOM     51  H   ARG A   8      21.650  22.731  -0.179  0.00  0.00    +0.150 HD
ATOM     52  O   GLY A   7      21.684  23.185  -3.313  0.00  0.00    -0.273 OA
BRANCH  50  53
ATOM     53  CA  ARG A   8      23.456  23.373  -1.178  0.00  0.00    +0.137 C 
BRANCH  53  54
ATOM     54  C   ARG A   8      24.317  22.570  -2.149  0.00  0.00    +0.227 C 
ATOM     55  O   ARG A   8      25.275  23.110  -2.700  0.00  0.00    -0.286 OA
ENDBRANCH  53  54
BRANCH  53  56
ATOM     56  CB  ARG A   8      24.090  23.352   0.224  0.00  0.00    +0.031 C 
BRANCH  56  57
ATOM     57  CG  ARG A   8      23.583  24.479   1.136  0.00  0.00    +0.045 C 
BRANCH  57  58
ATOM     58  CD  ARG A   8      24.352  24.583   2.465  0.00  0.00    +0.174 C 
BRANCH  58  59
ATOM     59  NE  ARG A   8      24.366  23.324   3.207  0.00  0.00    -0.265 N 
ATOM     60  HE  ARG A   8      23.524  23.083   3.768  0.00  0.00    +0.259 HD
ATOM     61  CZ  ARG A   8      25.382  22.464   3.215  0.00  0.00    +0.342 C 
ATOM     62  NH2 ARG A   8      25.281  21.328   3.889  0.00  0.00    -0.292 N 
ATOM     63 HH21 ARG A   8      24.409  21.109   4.411  0.00  0.00    +0.255 HD
ATOM     64 HH22 ARG A   8      26.074  20.655   3.896  0.00  0.00    +0.255 HD
ATOM     65  NH1 ARG A   8      26.486  22.725   2.529  0.00  0.00    -0.292 N 
ATOM     66 HH11 ARG A   8      27.276  22.049   2.539  0.00  0.00    +0.255 HD
ATOM     67 HH12 ARG A   8      26.562  23.606   1.981  0.00  0.00    +0.255 HD
ENDBRANCH  58  59
ENDBRANCH  57  58
ENDBRANCH  56  57
ENDBRANCH  53  56
ENDBRANCH  50  53
ENDBRANCH  48  49
ENDBRANCH  46  48
ENDBRANCH  43  44
BRANCH  43  68
ATOM     68  CB  ILE A   6      17.661  24.495  -5.740  0.00  0.00    +0.027 C 
ATOM     69  CG2 ILE A   6      19.103  24.446  -6.223  0.00  0.00    +0.002 C 
BRANCH  68  70
ATOM     70  CG1 ILE A   6      16.687  24.386  -6.921  0.00  0.00    +0.002 C 
ATOM     71  CD1 ILE A   6      16.745  23.076  -7.675  0.00  0.00    +0.000 C 
ENDBRANCH  68  70
ENDBRANCH  43  68
ENDBRANCH  40  43
ENDBRANCH   1  39
BRANCH   1  72
ATOM     72  CB  ILE A   5      14.015  21.816  -1.943  0.00  0.00    +0.027 C 
ATOM     73  CG2 ILE A   5      15.217  22.352  -1.171  0.00  0.00    +0.002 C 
BRANCH  72  74
ATOM     74  CG1 ILE A   5      12.707  22.145  -1.222  0.00  0.00    +0.002 C 
ATOM     75  CD1 ILE A   5      12.502  21.359   0.065  0.00  0.00    +0.000 C 
ENDBRANCH  72  74
ENDBRANCH   1  72
TORSDOF 28
REMARK  Name = ../refined-set-2016/1ebw/1ebw_pocket.pdb
REMARK  240 active torsions:
REMARK  status: ('A' for Active; 'I' for Inactive)
REMARK    1  A    between atoms: _1  and  _3
REMARK    2  A    between atoms: _3  and  _4
REMARK    3  A    between atoms: _3  and  _6
REMARK    4  A    between atoms: _6  and  _7
REMARK    5  A    between atoms: _7  and  _8
REMARK    6  A    between atoms: _8  and  _9
REMARK    7  A    between atoms: _18  and  _20
REMARK    8  A    between atoms: _20  and  _21
REMARK    9  A    between atoms: _20  and  _23
REMARK   10  A    between atoms: _23  and  _24
REMARK   11  A    between atoms: _27  and  _29
REMARK   12  A    between atoms: _29  and  _30
REMARK   13  A    between atoms: _29  and  _32
REMARK   14  A    between atoms: _32  and  _33
REMARK   15  A    between atoms: _36  and  _38
REMARK   16  A    between atoms: _38  and  _39
REMARK   17  A    between atoms: _38  and  _41
REMARK   18  A    between atoms: _41  and  _42
REMARK   19  A    between atoms: _45  and  _47
REMARK   20  A    between atoms: _47  and  _48
REMARK   21  A    between atoms: _47  and  _50
REMARK   22  A    between atoms: _50  and  _51
REMARK   23  A    between atoms: _54  and  _56
REMARK   24  A    between atoms: _56  and  _57
REMARK   25  A    between atoms: _56  and  _59
REMARK   26  A    between atoms: _59  and  _60
REMARK   27  A    between atoms: _63  and  _65
REMARK   28  A    between atoms: _65  and  _66
REMARK   29  A    between atoms: _68  and  _70
REMARK   30  A    between atoms: _70  and  _71
REMARK   31  A    between atoms: _74  and  _76
REMARK   32  A    between atoms: _76  and  _77
REMARK   33  A    between atoms: _76  and  _79
REMARK   34  A    between atoms: _79  and  _80
REMARK   35  A    between atoms: _83  and  _85
REMARK   36  A    between atoms: _85  and  _86
REMARK   37  A    between atoms: _85  and  _88
REMARK   38  A    between atoms: _88  and  _89
REMARK   39  A    between atoms: _92  and  _94
REMARK   40  A    between atoms: _94  and  _95
REMARK   41  A    between atoms: _94  and  _97
REMARK   42  A    between atoms: _97  and  _98
REMARK   43  A    between atoms: _101  and  _103
REMARK   44  A    between atoms: _103  and  _104
REMARK   45  A    between atoms: _103  and  _106
REMARK   46  A    between atoms: _109  and  _111
REMARK   47  A    between atoms: _111  and  _112
REMARK   48  A    between atoms: _111  and  _114
REMARK   49  A    between atoms: _114  and  _115
REMARK   50  A    between atoms: _118  and  _120
REMARK   51  A    between atoms: _120  and  _121
REMARK   52  A    between atoms: _120  and  _123
REMARK   53  A    between atoms: _123  and  _124
REMARK   54  A    between atoms: _124  and  _125
REMARK   55  A    between atoms: _125  and  _126
REMARK   56  A    between atoms: _126  and  _127
REMARK   57  A    between atoms: _131  and  _133
REMARK   58  A    between atoms: _133  and  _134
REMARK   59  A    between atoms: _133  and  _136
REMARK   60  A    between atoms: _136  and  _137
REMARK   61  A    between atoms: _137  and  _138
REMARK   62  A    between atoms: _140  and  _142
REMARK   63  A    between atoms: _142  and  _143
REMARK   64  A    between atoms: _142  and  _145
REMARK   65  A    between atoms: _145  and  _146
REMARK   66  A    between atoms: _149  and  _151
REMARK   67  A    between atoms: _151  and  _152
REMARK   68  A    between atoms: _154  and  _156
REMARK   69  A    between atoms: _156  and  _157
REMARK   70  A    between atoms: _159  and  _161
REMARK   71  A    between atoms: _161  and  _162
REMARK   72  A    between atoms: _161  and  _164
REMARK   73  A    between atoms: _164  and  _165
REMARK   74  A    between atoms: _168  and  _170
REMARK   75  A    between atoms: _170  and  _171
REMARK   76  A    between atoms: _173  and  _175
REMARK   77  A    between atoms: _175  and  _176
REMARK   78  A    between atoms: _178  and  _180
REMARK   79  A    between atoms: _180  and  _181
REMARK   80  A    between atoms: _180  and  _183
REMARK   81  A    between atoms: _183  and  _184
REMARK   82  A    between atoms: _190  and  _192
REMARK   83  A    between atoms: _192  and  _193
REMARK   84  A    between atoms: _192  and  _195
REMARK   85  A    between atoms: _195  and  _196
REMARK   86  A    between atoms: _199  and  _201
REMARK   87  A    between atoms: _201  and  _202
REMARK   88  A    between atoms: _201  and  _204
REMARK   89  A    between atoms: _207  and  _209
REMARK   90  A    between atoms: _209  and  _210
REMARK   91  A    between atoms: _209  and  _212
REMARK   92  A    between atoms: _212  and  _213
REMARK   93  A    between atoms: _216  and  _218
REMARK   94  A    between atoms: _218  and  _219
REMARK   95  A    between atoms: _218  and  _221
REMARK   96  A    between atoms: _221  and  _222
REMARK   97  A    between atoms: _226  and  _227
REMARK   98  A    between atoms: _232  and  _234
REMARK   99  A    between atoms: _234  and  _235
REMARK  100  A    between atoms: _234  and  _237
REMARK  101  A    between atoms: _240  and  _242
REMARK  102  A    between atoms: _242  and  _243
REMARK  103  A    between atoms: _242  and  _245
REMARK  104  A    between atoms: _245  and  _246
REMARK  105  A    between atoms: _251  and  _253
REMARK  106  A    between atoms: _253  and  _254
REMARK  107  A    between atoms: _253  and  _256
REMARK  108  A    between atoms: _256  and  _257
REMARK  109  A    between atoms: _260  and  _262
REMARK  110  A    between atoms: _262  and  _263
REMARK  111  A    between atoms: _262  and  _265
REMARK  112  A    between atoms: _265  and  _266
REMARK  113  A    between atoms: _269  and  _271
REMARK  114  A    between atoms: _271  and  _272
REMARK  115  A    between atoms: _274  and  _276
REMARK  116  A    between atoms: _276  and  _277
REMARK  117  A    between atoms: _276  and  _279
REMARK  118  A    between atoms: _279  and  _280
REMARK  119  A    between atoms: _280  and  _281
REMARK  120  A    between atoms: _281  and  _282
REMARK  121  A    between atoms: _291  and  _293
REMARK  122  A    between atoms: _293  and  _294
REMARK  123  A    between atoms: _293  and  _296
REMARK  124  A    between atoms: _296  and  _297
REMARK  125  A    between atoms: _297  and  _298
REMARK  126  A    between atoms: _298  and  _299
REMARK  127  A    between atoms: _308  and  _310
REMARK  128  A    between atoms: _310  and  _311
REMARK  129  A    between atoms: _310  and  _313
REMARK  130  A    between atoms: _313  and  _314
REMARK  131  A    between atoms: _317  and  _319
REMARK  132  A    between atoms: _319  and  _320
REMARK  133  A    between atoms: _319  and  _322
REMARK  134  A    between atoms: _322  and  _323
REMARK  135  A    between atoms: _326  and  _328
REMARK  136  A    between atoms: _328  and  _329
REMARK  137  A    between atoms: _328  and  _331
REMARK  138  A    between atoms: _331  and  _332
REMARK  139  A    between atoms: _335  and  _337
REMARK  140  A    between atoms: _337  and  _338
REMARK  141  A    between atoms: _337  and  _340
REMARK  142  A    between atoms: _340  and  _341
REMARK  143  A    between atoms: _344  and  _346
REMARK  144  A    between atoms: _346  and  _347
REMARK  145  A    between atoms: _346  and  _349
REMARK  146  A    between atoms: _349  and  _350
REMARK  147  A    between atoms: _353  and  _355
REMARK  148  A    between atoms: _355  and  _356
REMARK  149  A    between atoms: _358  and  _360
REMARK  150  A    between atoms: _360  and  _361
REMARK  151  A    between atoms: _364  and  _366
REMARK  152  A    between atoms: _366  and  _367
REMARK  153  A    between atoms: _366  and  _369
REMARK  154  A    between atoms: _369  and  _370
REMARK  155  A    between atoms: _373  and  _375
REMARK  156  A    between atoms: _375  and  _376
REMARK  157  A    between atoms: _375  and  _378
REMARK  158  A    between atoms: _378  and  _379
REMARK  159  A    between atoms: _382  and  _384
REMARK  160  A    between atoms: _384  and  _385
REMARK  161  A    between atoms: _384  and  _387
REMARK  162  A    between atoms: _387  and  _388
REMARK  163  A    between atoms: _391  and  _393
REMARK  164  A    between atoms: _393  and  _394
REMARK  165  A    between atoms: _393  and  _396
REMARK  166  A    between atoms: _399  and  _401
REMARK  167  A    between atoms: _401  and  _402
REMARK  168  A    between atoms: _401  and  _404
REMARK  169  A    between atoms: _404  and  _405
REMARK  170  A    between atoms: _408  and  _410
REMARK  171  A    between atoms: _410  and  _411
REMARK  172  A    between atoms: _410  and  _413
REMARK  173  A    between atoms: _413  and  _414
REMARK  174  A    between atoms: _414  and  _415
REMARK  175  A    between atoms: _415  and  _416
REMARK  176  A    between atoms: _416  and  _417
REMARK  177  A    between atoms: _421  and  _423
REMARK  178  A    between atoms: _423  and  _424
REMARK  179  A    between atoms: _423  and  _426
REMARK  180  A    between atoms: _426  and  _427
REMARK  181  A    between atoms: _427  and  _428
REMARK  182  A    between atoms: _430  and  _432
REMARK  183  A    between atoms: _432  and  _433
REMARK  184  A    between atoms: _432  and  _435
REMARK  185  A    between atoms: _435  and  _436
REMARK  186  A    between atoms: _439  and  _441
REMARK  187  A    between atoms: _441  and  _442
REMARK  188  A    between atoms: _444  and  _446
REMARK  189  A    between atoms: _446  and  _447
REMARK  190  A    between atoms: _449  and  _451
REMARK  191  A    between atoms: _451  and  _452
REMARK  192  A    between atoms: _451  and  _454
REMARK  193  A    between atoms: _454  and  _455
REMARK  194  A    between atoms: _458  and  _460
REMARK  195  A    between atoms: _460  and  _461
REMARK  196  A    between atoms: _463  and  _465
REMARK  197  A    between atoms: _465  and  _466
REMARK  198  A    between atoms: _468  and  _470
REMARK  199  A    between atoms: _470  and  _471
REMARK  200  A    between atoms: _470  and  _473
REMARK  201  A    between atoms: _473  and  _474
REMARK  202  A    between atoms: _480  and  _482
REMARK  203  A    between atoms: _482  and  _483
REMARK  204  A    between atoms: _482  and  _485
REMARK  205  A    between atoms: _485  and  _486
REMARK  206  A    between atoms: _489  and  _491
REMARK  207  A    between atoms: _491  and  _492
REMARK  208  A    between atoms: _491  and  _494
REMARK  209  A    between atoms: _497  and  _499
REMARK  210  A    between atoms: _499  and  _500
REMARK  211  A    between atoms: _499  and  _502
REMARK  212  A    between atoms: _502  and  _503
REMARK  213  A    between atoms: _506  and  _508
REMARK  214  A    between atoms: _508  and  _509
REMARK  215  A    between atoms: _508  and  _511
REMARK  216  A    between atoms: _511  and  _512
REMARK  217  A    between atoms: _516  and  _517
REMARK  218  A    between atoms: _522  and  _524
REMARK  219  A    between atoms: _524  and  _525
REMARK  220  A    between atoms: _524  and  _527
REMARK  221  A    between atoms: _530  and  _532
REMARK  222  A    between atoms: _532  and  _533
REMARK  223  A    between atoms: _532  and  _535
REMARK  224  A    between atoms: _535  and  _536
REMARK  225  A    between atoms: _541  and  _543
REMARK  226  A    between atoms: _543  and  _544
REMARK  227  A    between atoms: _543  and  _546
REMARK  228  A    between atoms: _546  and  _547
REMARK  229  A    between atoms: _550  and  _552
REMARK  230  A    between atoms: _552  and  _553
REMARK  231  A    between atoms: _552  and  _555
REMARK  232  A    between atoms: _555  and  _556
REMARK  233  A    between atoms: _559  and  _561
REMARK  234  A    between atoms: _561  and  _562
REMARK  235  A    between atoms: _564  and  _566
REMARK  236  A    between atoms: _566  and  _567
REMARK  237  A    between atoms: _566  and  _569
REMARK  238  A    between atoms: _569  and  _570
REMARK  239  A    between atoms: _570  and  _571
REMARK  240  A    between atoms: _571  and  _572
REMARK                            x       y       z     vdW  Elec       q    Type
REMARK                         _______ _______ _______ _____ _____    ______ ____
ROOT
ATOM      1  O   HOH     1       8.861  33.666  12.594  0.00  0.00    +0.000 OA
ENDROOT
TORSDOF 0
REMARK  Name = ../refined-set-2016/1ebw/1ebw_pocket.pdb
REMARK  240 active torsions:
REMARK  status: ('A' for Active; 'I' for Inactive)
REMARK    1  A    between atoms: _1  and  _3
REMARK    2  A    between atoms: _3  and  _4
REMARK    3  A    between atoms: _3  and  _6
REMARK    4  A    between atoms: _6  and  _7
REMARK    5  A    between atoms: _7  and  _8
REMARK    6  A    between atoms: _8  and  _9
REMARK    7  A    between atoms: _18  and  _20
REMARK    8  A    between atoms: _20  and  _21
REMARK    9  A    between atoms: _20  and  _23
REMARK   10  A    between atoms: _23  and  _24
REMARK   11  A    between atoms: _27  and  _29
REMARK   12  A    between atoms: _29  and  _30
REMARK   13  A    between atoms: _29  and  _32
REMARK   14  A    between atoms: _32  and  _33
REMARK   15  A    between atoms: _36  and  _38
REMARK   16  A    between atoms: _38  and  _39
REMARK   17  A    between atoms: _38  and  _41
REMARK   18  A    between atoms: _41  and  _42
REMARK   19  A    between atoms: _45  and  _47
REMARK   20  A    between atoms: _47  and  _48
REMARK   21  A    between atoms: _47  and  _50
REMARK   22  A    between atoms: _50  and  _51
REMARK   23  A    between atoms: _54  and  _56
REMARK   24  A    between atoms: _56  and  _57
REMARK   25  A    between atoms: _56  and  _59
REMARK   26  A    between atoms: _59  and  _60
REMARK   27  A    between atoms: _63  and  _65
REMARK   28  A    between atoms: _65  and  _66
REMARK   29  A    between atoms: _68  and  _70
REMARK   30  A    between atoms: _70  and  _71
REMARK   31  A    between atoms: _74  and  _76
REMARK   32  A    between atoms: _76  and  _77
REMARK   33  A    between atoms: _76  and  _79
REMARK   34  A    between atoms: _79  and  _80
REMARK   35  A    between atoms: _83  and  _85
REMARK   36  A    between atoms: _85  and  _86
REMARK   37  A    between atoms: _85  and  _88
REMARK   38  A    between atoms: _88  and  _89
REMARK   39  A    between atoms: _92  and  _94
REMARK   40  A    between atoms: _94  and  _95
REMARK   41  A    between atoms: _94  and  _97
REMARK   42  A    between atoms: _97  and  _98
REMARK   43  A    between atoms: _101  and  _103
REMARK   44  A    between atoms: _103  and  _104
REMARK   45  A    between atoms: _103  and  _106
REMARK   46  A    between atoms: _109  and  _111
REMARK   47  A    between atoms: _111  and  _112
REMARK   48  A    between atoms: _111  and  _114
REMARK   49  A    between atoms: _114  and  _115
REMARK   50  A    between atoms: _118  and  _120
REMARK   51  A    between atoms: _120  and  _121
REMARK   52  A    between atoms: _120  and  _123
REMARK   53  A    between atoms: _123  and  _124
REMARK   54  A    between atoms: _124  and  _125
REMARK   55  A    between atoms: _125  and  _126
REMARK   56  A    between atoms: _126  and  _127
REMARK   57  A    between atoms: _131  and  _133
REMARK   58  A    between atoms: _133  and  _134
REMARK   59  A    between atoms: _133  and  _136
REMARK   60  A    between atoms: _136  and  _137
REMARK   61  A    between atoms: _137  and  _138
REMARK   62  A    between atoms: _140  and  _142
REMARK   63  A    between atoms: _142  and  _143
REMARK   64  A    between atoms: _142  and  _145
REMARK   65  A    between atoms: _145  and  _146
REMARK   66  A    between atoms: _149  and  _151
REMARK   67  A    between atoms: _151  and  _152
REMARK   68  A    between atoms: _154  and  _156
REMARK   69  A    between atoms: _156  and  _157
REMARK   70  A    between atoms: _159  and  _161
REMARK   71  A    between atoms: _161  and  _162
REMARK   72  A    between atoms: _161  and  _164
REMARK   73  A    between atoms: _164  and  _165
REMARK   74  A    between atoms: _168  and  _170
REMARK   75  A    between atoms: _170  and  _171
REMARK   76  A    between atoms: _173  and  _175
REMARK   77  A    between atoms: _175  and  _176
REMARK   78  A    between atoms: _178  and  _180
REMARK   79  A    between atoms: _180  and  _181
REMARK   80  A    between atoms: _180  and  _183
REMARK   81  A    between atoms: _183  and  _184
REMARK   82  A    between atoms: _190  and  _192
REMARK   83  A    between atoms: _192  and  _193
REMARK   84  A    between atoms: _192  and  _195
REMARK   85  A    between atoms: _195  and  _196
REMARK   86  A    between atoms: _199  and  _201
REMARK   87  A    between atoms: _201  and  _202
REMARK   88  A    between atoms: _201  and  _204
REMARK   89  A    between atoms: _207  and  _209
REMARK   90  A    between atoms: _209  and  _210
REMARK   91  A    between atoms: _209  and  _212
REMARK   92  A    between atoms: _212  and  _213
REMARK   93  A    between atoms: _216  and  _218
REMARK   94  A    between atoms: _218  and  _219
REMARK   95  A    between atoms: _218  and  _221
REMARK   96  A    between atoms: _221  and  _222
REMARK   97  A    between atoms: _226  and  _227
REMARK   98  A    between atoms: _232  and  _234
REMARK   99  A    between atoms: _234  and  _235
REMARK  100  A    between atoms: _234  and  _237
REMARK  101  A    between atoms: _240  and  _242
REMARK  102  A    between atoms: _242  and  _243
REMARK  103  A    between atoms: _242  and  _245
REMARK  104  A    between atoms: _245  and  _246
REMARK  105  A    between atoms: _251  and  _253
REMARK  106  A    between atoms: _253  and  _254
REMARK  107  A    between atoms: _253  and  _256
REMARK  108  A    between atoms: _256  and  _257
REMARK  109  A    between atoms: _260  and  _262
REMARK  110  A    between atoms: _262  and  _263
REMARK  111  A    between atoms: _262  and  _265
REMARK  112  A    between atoms: _265  and  _266
REMARK  113  A    between atoms: _269  and  _271
REMARK  114  A    between atoms: _271  and  _272
REMARK  115  A    between atoms: _274  and  _276
REMARK  116  A    between atoms: _276  and  _277
REMARK  117  A    between atoms: _276  and  _279
REMARK  118  A    between atoms: _279  and  _280
REMARK  119  A    between atoms: _280  and  _281
REMARK  120  A    between atoms: _281  and  _282
REMARK  121  A    between atoms: _291  and  _293
REMARK  122  A    between atoms: _293  and  _294
REMARK  123  A    between atoms: _293  and  _296
REMARK  124  A    between atoms: _296  and  _297
REMARK  125  A    between atoms: _297  and  _298
REMARK  126  A    between atoms: _298  and  _299
REMARK  127  A    between atoms: _308  and  _310
REMARK  128  A    between atoms: _310  and  _311
REMARK  129  A    between atoms: _310  and  _313
REMARK  130  A    between atoms: _313  and  _314
REMARK  131  A    between atoms: _317  and  _319
REMARK  132  A    between atoms: _319  and  _320
REMARK  133  A    between atoms: _319  and  _322
REMARK  134  A    between atoms: _322  and  _323
REMARK  135  A    between atoms: _326  and  _328
REMARK  136  A    between atoms: _328  and  _329
REMARK  137  A    between atoms: _328  and  _331
REMARK  138  A    between atoms: _331  and  _332
REMARK  139  A    between atoms: _335  and  _337
REMARK  140  A    between atoms: _337  and  _338
REMARK  141  A    between atoms: _337  and  _340
REMARK  142  A    between atoms: _340  and  _341
REMARK  143  A    between atoms: _344  and  _346
REMARK  144  A    between atoms: _346  and  _347
REMARK  145  A    between atoms: _346  and  _349
REMARK  146  A    between atoms: _349  and  _350
REMARK  147  A    between atoms: _353  and  _355
REMARK  148  A    between atoms: _355  and  _356
REMARK  149  A    between atoms: _358  and  _360
REMARK  150  A    between atoms: _360  and  _361
REMARK  151  A    between atoms: _364  and  _366
REMARK  152  A    between atoms: _366  and  _367
REMARK  153  A    between atoms: _366  and  _369
REMARK  154  A    between atoms: _369  and  _370
REMARK  155  A    between atoms: _373  and  _375
REMARK  156  A    between atoms: _375  and  _376
REMARK  157  A    between atoms: _375  and  _378
REMARK  158  A    between atoms: _378  and  _379
REMARK  159  A    between atoms: _382  and  _384
REMARK  160  A    between atoms: _384  and  _385
REMARK  161  A    between atoms: _384  and  _387
REMARK  162  A    between atoms: _387  and  _388
REMARK  163  A    between atoms: _391  and  _393
REMARK  164  A    between atoms: _393  and  _394
REMARK  165  A    between atoms: _393  and  _396
REMARK  166  A    between atoms: _399  and  _401
REMARK  167  A    between atoms: _401  and  _402
REMARK  168  A    between atoms: _401  and  _404
REMARK  169  A    between atoms: _404  and  _405
REMARK  170  A    between atoms: _408  and  _410
REMARK  171  A    between atoms: _410  and  _411
REMARK  172  A    between atoms: _410  and  _413
REMARK  173  A    between atoms: _413  and  _414
REMARK  174  A    between atoms: _414  and  _415
REMARK  175  A    between atoms: _415  and  _416
REMARK  176  A    between atoms: _416  and  _417
REMARK  177  A    between atoms: _421  and  _423
REMARK  178  A    between atoms: _423  and  _424
REMARK  179  A    between atoms: _423  and  _426
REMARK  180  A    between atoms: _426  and  _427
REMARK  181  A    between atoms: _427  and  _428
REMARK  182  A    between atoms: _430  and  _432
REMARK  183  A    between atoms: _432  and  _433
REMARK  184  A    between atoms: _432  and  _435
REMARK  185  A    between atoms: _435  and  _436
REMARK  186  A    between atoms: _439  and  _441
REMARK  187  A    between atoms: _441  and  _442
REMARK  188  A    between atoms: _444  and  _446
REMARK  189  A    between atoms: _446  and  _447
REMARK  190  A    between atoms: _449  and  _451
REMARK  191  A    between atoms: _451  and  _452
REMARK  192  A    between atoms: _451  and  _454
REMARK  193  A    between atoms: _454  and  _455
REMARK  194  A    between atoms: _458  and  _460
REMARK  195  A    between atoms: _460  and  _461
REMARK  196  A    between atoms: _463  and  _465
REMARK  197  A    between atoms: _465  and  _466
REMARK  198  A    between atoms: _468  and  _470
REMARK  199  A    between atoms: _470  and  _471
REMARK  200  A    between atoms: _470  and  _473
REMARK  201  A    between atoms: _473  and  _474
REMARK  202  A    between atoms: _480  and  _482
REMARK  203  A    between atoms: _482  and  _483
REMARK  204  A    between atoms: _482  and  _485
REMARK  205  A    between atoms: _485  and  _486
REMARK  206  A    between atoms: _489  and  _491
REMARK  207  A    between atoms: _491  and  _492
REMARK  208  A    between atoms: _491  and  _494
REMARK  209  A    between atoms: _497  and  _499
REMARK  210  A    between atoms: _499  and  _500
REMARK  211  A    between atoms: _499  and  _502
REMARK  212  A    between atoms: _502  and  _503
REMARK  213  A    between atoms: _506  and  _508
REMARK  214  A    between atoms: _508  and  _509
REMARK  215  A    between atoms: _508  and  _511
REMARK  216  A    between atoms: _511  and  _512
REMARK  217  A    between atoms: _516  and  _517
REMARK  218  A    between atoms: _522  and  _524
REMARK  219  A    between atoms: _524  and  _525
REMARK  220  A    between atoms: _524  and  _527
REMARK  221  A    between atoms: _530  and  _532
REMARK  222  A    between atoms: _532  and  _533
REMARK  223  A    between atoms: _532  and  _535
REMARK  224  A    between atoms: _535  and  _536
REMARK  225  A    between atoms: _541  and  _543
REMARK  226  A    between atoms: _543  and  _544
REMARK  227  A    between atoms: _543  and  _546
REMARK  228  A    between atoms: _546  and  _547
REMARK  229  A    between atoms: _550  and  _552
REMARK  230  A    between atoms: _552  and  _553
REMARK  231  A    between atoms: _552  and  _555
REMARK  232  A    between atoms: _555  and  _556
REMARK  233  A    between atoms: _559  and  _561
REMARK  234  A    between atoms: _561  and  _562
REMARK  235  A    between atoms: _564  and  _566
REMARK  236  A    between atoms: _566  and  _567
REMARK  237  A    between atoms: _566  and  _569
REMARK  238  A    between atoms: _569  and  _570
REMARK  239  A    between atoms: _570  and  _571
REMARK  240  A    between atoms: _571  and  _572
REMARK                            x       y       z     vdW  Elec       q    Type
REMARK                         _______ _______ _______ _____ _____    ______ ____
ROOT
ATOM      1  O   HOH     1       9.469  28.946   2.019  0.00  0.00    +0.000 OA
ENDROOT
TORSDOF 0
REMARK  Name = ../refined-set-2016/1ebw/1ebw_pocket.pdb
REMARK  240 active torsions:
REMARK  status: ('A' for Active; 'I' for Inactive)
REMARK    1  A    between atoms: _1  and  _3
REMARK    2  A    between atoms: _3  and  _4
REMARK    3  A    between atoms: _3  and  _6
REMARK    4  A    between atoms: _6  and  _7
REMARK    5  A    between atoms: _7  and  _8
REMARK    6  A    between atoms: _8  and  _9
REMARK    7  A    between atoms: _18  and  _20
REMARK    8  A    between atoms: _20  and  _21
REMARK    9  A    between atoms: _20  and  _23
REMARK   10  A    between atoms: _23  and  _24
REMARK   11  A    between atoms: _27  and  _29
REMARK   12  A    between atoms: _29  and  _30
REMARK   13  A    between atoms: _29  and  _32
REMARK   14  A    between atoms: _32  and  _33
REMARK   15  A    between atoms: _36  and  _38
REMARK   16  A    between atoms: _38  and  _39
REMARK   17  A    between atoms: _38  and  _41
REMARK   18  A    between atoms: _41  and  _42
REMARK   19  A    between atoms: _45  and  _47
REMARK   20  A    between atoms: _47  and  _48
REMARK   21  A    between atoms: _47  and  _50
REMARK   22  A    between atoms: _50  and  _51
REMARK   23  A    between atoms: _54  and  _56
REMARK   24  A    between atoms: _56  and  _57
REMARK   25  A    between atoms: _56  and  _59
REMARK   26  A    between atoms: _59  and  _60
REMARK   27  A    between atoms: _63  and  _65
REMARK   28  A    between atoms: _65  and  _66
REMARK   29  A    between atoms: _68  and  _70
REMARK   30  A    between atoms: _70  and  _71
REMARK   31  A    between atoms: _74  and  _76
REMARK   32  A    between atoms: _76  and  _77
REMARK   33  A    between atoms: _76  and  _79
REMARK   34  A    between atoms: _79  and  _80
REMARK   35  A    between atoms: _83  and  _85
REMARK   36  A    between atoms: _85  and  _86
REMARK   37  A    between atoms: _85  and  _88
REMARK   38  A    between atoms: _88  and  _89
REMARK   39  A    between atoms: _92  and  _94
REMARK   40  A    between atoms: _94  and  _95
REMARK   41  A    between atoms: _94  and  _97
REMARK   42  A    between atoms: _97  and  _98
REMARK   43  A    between atoms: _101  and  _103
REMARK   44  A    between atoms: _103  and  _104
REMARK   45  A    between atoms: _103  and  _106
REMARK   46  A    between atoms: _109  and  _111
REMARK   47  A    between atoms: _111  and  _112
REMARK   48  A    between atoms: _111  and  _114
REMARK   49  A    between atoms: _114  and  _115
REMARK   50  A    between atoms: _118  and  _120
REMARK   51  A    between atoms: _120  and  _121
REMARK   52  A    between atoms: _120  and  _123
REMARK   53  A    between atoms: _123  and  _124
REMARK   54  A    between atoms: _124  and  _125
REMARK   55  A    between atoms: _125  and  _126
REMARK   56  A    between atoms: _126  and  _127
REMARK   57  A    between atoms: _131  and  _133
REMARK   58  A    between atoms: _133  and  _134
REMARK   59  A    between atoms: _133  and  _136
REMARK   60  A    between atoms: _136  and  _137
REMARK   61  A    between atoms: _137  and  _138
REMARK   62  A    between atoms: _140  and  _142
REMARK   63  A    between atoms: _142  and  _143
REMARK   64  A    between atoms: _142  and  _145
REMARK   65  A    between atoms: _145  and  _146
REMARK   66  A    between atoms: _149  and  _151
REMARK   67  A    between atoms: _151  and  _152
REMARK   68  A    between atoms: _154  and  _156
REMARK   69  A    between atoms: _156  and  _157
REMARK   70  A    between atoms: _159  and  _161
REMARK   71  A    between atoms: _161  and  _162
REMARK   72  A    between atoms: _161  and  _164
REMARK   73  A    between atoms: _164  and  _165
REMARK   74  A    between atoms: _168  and  _170
REMARK   75  A    between atoms: _170  and  _171
REMARK   76  A    between atoms: _173  and  _175
REMARK   77  A    between atoms: _175  and  _176
REMARK   78  A    between atoms: _178  and  _180
REMARK   79  A    between atoms: _180  and  _181
REMARK   80  A    between atoms: _180  and  _183
REMARK   81  A    between atoms: _183  and  _184
REMARK   82  A    between atoms: _190  and  _192
REMARK   83  A    between atoms: _192  and  _193
REMARK   84  A    between atoms: _192  and  _195
REMARK   85  A    between atoms: _195  and  _196
REMARK   86  A    between atoms: _199  and  _201
REMARK   87  A    between atoms: _201  and  _202
REMARK   88  A    between atoms: _201  and  _204
REMARK   89  A    between atoms: _207  and  _209
REMARK   90  A    between atoms: _209  and  _210
REMARK   91  A    between atoms: _209  and  _212
REMARK   92  A    between atoms: _212  and  _213
REMARK   93  A    between atoms: _216  and  _218
REMARK   94  A    between atoms: _218  and  _219
REMARK   95  A    between atoms: _218  and  _221
REMARK   96  A    between atoms: _221  and  _222
REMARK   97  A    between atoms: _226  and  _227
REMARK   98  A    between atoms: _232  and  _234
REMARK   99  A    between atoms: _234  and  _235
REMARK  100  A    between atoms: _234  and  _237
REMARK  101  A    between atoms: _240  and  _242
REMARK  102  A    between atoms: _242  and  _243
REMARK  103  A    between atoms: _242  and  _245
REMARK  104  A    between atoms: _245  and  _246
REMARK  105  A    between atoms: _251  and  _253
REMARK  106  A    between atoms: _253  and  _254
REMARK  107  A    between atoms: _253  and  _256
REMARK  108  A    between atoms: _256  and  _257
REMARK  109  A    between atoms: _260  and  _262
REMARK  110  A    between atoms: _262  and  _263
REMARK  111  A    between atoms: _262  and  _265
REMARK  112  A    between atoms: _265  and  _266
REMARK  113  A    between atoms: _269  and  _271
REMARK  114  A    between atoms: _271  and  _272
REMARK  115  A    between atoms: _274  and  _276
REMARK  116  A    between atoms: _276  and  _277
REMARK  117  A    between atoms: _276  and  _279
REMARK  118  A    between atoms: _279  and  _280
REMARK  119  A    between atoms: _280  and  _281
REMARK  120  A    between atoms: _281  and  _282
REMARK  121  A    between atoms: _291  and  _293
REMARK  122  A    between atoms: _293  and  _294
REMARK  123  A    between atoms: _293  and  _296
REMARK  124  A    between atoms: _296  and  _297
REMARK  125  A    between atoms: _297  and  _298
REMARK  126  A    between atoms: _298  and  _299
REMARK  127  A    between atoms: _308  and  _310
REMARK  128  A    between atoms: _310  and  _311
REMARK  129  A    between atoms: _310  and  _313
REMARK  130  A    between atoms: _313  and  _314
REMARK  131  A    between atoms: _317  and  _319
REMARK  132  A    between atoms: _319  and  _320
REMARK  133  A    between atoms: _319  and  _322
REMARK  134  A    between atoms: _322  and  _323
REMARK  135  A    between atoms: _326  and  _328
REMARK  136  A    between atoms: _328  and  _329
REMARK  137  A    between atoms: _328  and  _331
REMARK  138  A    between atoms: _331  and  _332
REMARK  139  A    between atoms: _335  and  _337
REMARK  140  A    between atoms: _337  and  _338
REMARK  141  A    between atoms: _337  and  _340
REMARK  142  A    between atoms: _340  and  _341
REMARK  143  A    between atoms: _344  and  _346
REMARK  144  A    between atoms: _346  and  _347
REMARK  145  A    between atoms: _346  and  _349
REMARK  146  A    between atoms: _349  and  _350
REMARK  147  A    between atoms: _353  and  _355
REMARK  148  A    between atoms: _355  and  _356
REMARK  149  A    between atoms: _358  and  _360
REMARK  150  A    between atoms: _360  and  _361
REMARK  151  A    between atoms: _364  and  _366
REMARK  152  A    between atoms: _366  and  _367
REMARK  153  A    between atoms: _366  and  _369
REMARK  154  A    between atoms: _369  and  _370
REMARK  155  A    between atoms: _373  and  _375
REMARK  156  A    between atoms: _375  and  _376
REMARK  157  A    between atoms: _375  and  _378
REMARK  158  A    between atoms: _378  and  _379
REMARK  159  A    between atoms: _382  and  _384
REMARK  160  A    between atoms: _384  and  _385
REMARK  161  A    between atoms: _384  and  _387
REMARK  162  A    between atoms: _387  and  _388
REMARK  163  A    between atoms: _391  and  _393
REMARK  164  A    between atoms: _393  and  _394
REMARK  165  A    between atoms: _393  and  _396
REMARK  166  A    between atoms: _399  and  _401
REMARK  167  A    between atoms: _401  and  _402
REMARK  168  A    between atoms: _401  and  _404
REMARK  169  A    between atoms: _404  and  _405
REMARK  170  A    between atoms: _408  and  _410
REMARK  171  A    between atoms: _410  and  _411
REMARK  172  A    between atoms: _410  and  _413
REMARK  173  A    between atoms: _413  and  _414
REMARK  174  A    between atoms: _414  and  _415
REMARK  175  A    between atoms: _415  and  _416
REMARK  176  A    between atoms: _416  and  _417
REMARK  177  A    between atoms: _421  and  _423
REMARK  178  A    between atoms: _423  and  _424
REMARK  179  A    between atoms: _423  and  _426
REMARK  180  A    between atoms: _426  and  _427
REMARK  181  A    between atoms: _427  and  _428
REMARK  182  A    between atoms: _430  and  _432
REMARK  183  A    between atoms: _432  and  _433
REMARK  184  A    between atoms: _432  and  _435
REMARK  185  A    between atoms: _435  and  _436
REMARK  186  A    between atoms: _439  and  _441
REMARK  187  A    between atoms: _441  and  _442
REMARK  188  A    between atoms: _444  and  _446
REMARK  189  A    between atoms: _446  and  _447
REMARK  190  A    between atoms: _449  and  _451
REMARK  191  A    between atoms: _451  and  _452
REMARK  192  A    between atoms: _451  and  _454
REMARK  193  A    between atoms: _454  and  _455
REMARK  194  A    between atoms: _458  and  _460
REMARK  195  A    between atoms: _460  and  _461
REMARK  196  A    between atoms: _463  and  _465
REMARK  197  A    between atoms: _465  and  _466
REMARK  198  A    between atoms: _468  and  _470
REMARK  199  A    between atoms: _470  and  _471
REMARK  200  A    between atoms: _470  and  _473
REMARK  201  A    between atoms: _473  and  _474
REMARK  202  A    between atoms: _480  and  _482
REMARK  203  A    between atoms: _482  and  _483
REMARK  204  A    between atoms: _482  and  _485
REMARK  205  A    between atoms: _485  and  _486
REMARK  206  A    between atoms: _489  and  _491
REMARK  207  A    between atoms: _491  and  _492
REMARK  208  A    between atoms: _491  and  _494
REMARK  209  A    between atoms: _497  and  _499
REMARK  210  A    between atoms: _499  and  _500
REMARK  211  A    between atoms: _499  and  _502
REMARK  212  A    between atoms: _502  and  _503
REMARK  213  A    between atoms: _506  and  _508
REMARK  214  A    between atoms: _508  and  _509
REMARK  215  A    between atoms: _508  and  _511
REMARK  216  A    between atoms: _511  and  _512
REMARK  217  A    between atoms: _516  and  _517
REMARK  218  A    between atoms: _522  and  _524
REMARK  219  A    between atoms: _524  and  _525
REMARK  220  A    between atoms: _524  and  _527
REMARK  221  A    between atoms: _530  and  _532
REMARK  222  A    between atoms: _532  and  _533
REMARK  223  A    between atoms: _532  and  _535
REMARK  224  A    between atoms: _535  and  _536
REMARK  225  A    between atoms: _541  and  _543
REMARK  226  A    between atoms: _543  and  _544
REMARK  227  A    between atoms: _543  and  _546
REMARK  228  A    between atoms: _546  and  _547
REMARK  229  A    between atoms: _550  and  _552
REMARK  230  A    between atoms: _552  and  _553
REMARK  231  A    between atoms: _552  and  _555
REMARK  232  A    between atoms: _555  and  _556
REMARK  233  A    between atoms: _559  and  _561
REMARK  234  A    between atoms: _561  and  _562
REMARK  235  A    between atoms: _564  and  _566
REMARK  236  A    between atoms: _566  and  _567
REMARK  237  A    between atoms: _566  and  _569
REMARK  238  A    between atoms: _569  and  _570
REMARK  239  A    between atoms: _570  and  _571
REMARK  240  A    between atoms: _571  and  _572
REMARK                            x       y       z     vdW  Elec       q    Type
REMARK                         _______ _______ _______ _____ _____    ______ ____
ROOT
ATOM      1  O   HOH     1      11.440  30.873   1.355  0.00  0.00    +0.000 OA
ENDROOT
TORSDOF 0
REMARK  Name = ../refined-set-2016/1ebw/1ebw_pocket.pdb
REMARK  240 active torsions:
REMARK  status: ('A' for Active; 'I' for Inactive)
REMARK    1  A    between atoms: _1  and  _3
REMARK    2  A    between atoms: _3  and  _4
REMARK    3  A    between atoms: _3  and  _6
REMARK    4  A    between atoms: _6  and  _7
REMARK    5  A    between atoms: _7  and  _8
REMARK    6  A    between atoms: _8  and  _9
REMARK    7  A    between atoms: _18  and  _20
REMARK    8  A    between atoms: _20  and  _21
REMARK    9  A    between atoms: _20  and  _23
REMARK   10  A    between atoms: _23  and  _24
REMARK   11  A    between atoms: _27  and  _29
REMARK   12  A    between atoms: _29  and  _30
REMARK   13  A    between atoms: _29  and  _32
REMARK   14  A    between atoms: _32  and  _33
REMARK   15  A    between atoms: _36  and  _38
REMARK   16  A    between atoms: _38  and  _39
REMARK   17  A    between atoms: _38  and  _41
REMARK   18  A    between atoms: _41  and  _42
REMARK   19  A    between atoms: _45  and  _47
REMARK   20  A    between atoms: _47  and  _48
REMARK   21  A    between atoms: _47  and  _50
REMARK   22  A    between atoms: _50  and  _51
REMARK   23  A    between atoms: _54  and  _56
REMARK   24  A    between atoms: _56  and  _57
REMARK   25  A    between atoms: _56  and  _59
REMARK   26  A    between atoms: _59  and  _60
REMARK   27  A    between atoms: _63  and  _65
REMARK   28  A    between atoms: _65  and  _66
REMARK   29  A    between atoms: _68  and  _70
REMARK   30  A    between atoms: _70  and  _71
REMARK   31  A    between atoms: _74  and  _76
REMARK   32  A    between atoms: _76  and  _77
REMARK   33  A    between atoms: _76  and  _79
REMARK   34  A    between atoms: _79  and  _80
REMARK   35  A    between atoms: _83  and  _85
REMARK   36  A    between atoms: _85  and  _86
REMARK   37  A    between atoms: _85  and  _88
REMARK   38  A    between atoms: _88  and  _89
REMARK   39  A    between atoms: _92  and  _94
REMARK   40  A    between atoms: _94  and  _95
REMARK   41  A    between atoms: _94  and  _97
REMARK   42  A    between atoms: _97  and  _98
REMARK   43  A    between atoms: _101  and  _103
REMARK   44  A    between atoms: _103  and  _104
REMARK   45  A    between atoms: _103  and  _106
REMARK   46  A    between atoms: _109  and  _111
REMARK   47  A    between atoms: _111  and  _112
REMARK   48  A    between atoms: _111  and  _114
REMARK   49  A    between atoms: _114  and  _115
REMARK   50  A    between atoms: _118  and  _120
REMARK   51  A    between atoms: _120  and  _121
REMARK   52  A    between atoms: _120  and  _123
REMARK   53  A    between atoms: _123  and  _124
REMARK   54  A    between atoms: _124  and  _125
REMARK   55  A    between atoms: _125  and  _126
REMARK   56  A    between atoms: _126  and  _127
REMARK   57  A    between atoms: _131  and  _133
REMARK   58  A    between atoms: _133  and  _134
REMARK   59  A    between atoms: _133  and  _136
REMARK   60  A    between atoms: _136  and  _137
REMARK   61  A    between atoms: _137  and  _138
REMARK   62  A    between atoms: _140  and  _142
REMARK   63  A    between atoms: _142  and  _143
REMARK   64  A    between atoms: _142  and  _145
REMARK   65  A    between atoms: _145  and  _146
REMARK   66  A    between atoms: _149  and  _151
REMARK   67  A    between atoms: _151  and  _152
REMARK   68  A    between atoms: _154  and  _156
REMARK   69  A    between atoms: _156  and  _157
REMARK   70  A    between atoms: _159  and  _161
REMARK   71  A    between atoms: _161  and  _162
REMARK   72  A    between atoms: _161  and  _164
REMARK   73  A    between atoms: _164  and  _165
REMARK   74  A    between atoms: _168  and  _170
REMARK   75  A    between atoms: _170  and  _171
REMARK   76  A    between atoms: _173  and  _175
REMARK   77  A    between atoms: _175  and  _176
REMARK   78  A    between atoms: _178  and  _180
REMARK   79  A    between atoms: _180  and  _181
REMARK   80  A    between atoms: _180  and  _183
REMARK   81  A    between atoms: _183  and  _184
REMARK   82  A    between atoms: _190  and  _192
REMARK   83  A    between atoms: _192  and  _193
REMARK   84  A    between atoms: _192  and  _195
REMARK   85  A    between atoms: _195  and  _196
REMARK   86  A    between atoms: _199  and  _201
REMARK   87  A    between atoms: _201  and  _202
REMARK   88  A    between atoms: _201  and  _204
REMARK   89  A    between atoms: _207  and  _209
REMARK   90  A    between atoms: _209  and  _210
REMARK   91  A    between atoms: _209  and  _212
REMARK   92  A    between atoms: _212  and  _213
REMARK   93  A    between atoms: _216  and  _218
REMARK   94  A    between atoms: _218  and  _219
REMARK   95  A    between atoms: _218  and  _221
REMARK   96  A    between atoms: _221  and  _222
REMARK   97  A    between atoms: _226  and  _227
REMARK   98  A    between atoms: _232  and  _234
REMARK   99  A    between atoms: _234  and  _235
REMARK  100  A    between atoms: _234  and  _237
REMARK  101  A    between atoms: _240  and  _242
REMARK  102  A    between atoms: _242  and  _243
REMARK  103  A    between atoms: _242  and  _245
REMARK  104  A    between atoms: _245  and  _246
REMARK  105  A    between atoms: _251  and  _253
REMARK  106  A    between atoms: _253  and  _254
REMARK  107  A    between atoms: _253  and  _256
REMARK  108  A    between atoms: _256  and  _257
REMARK  109  A    between atoms: _260  and  _262
REMARK  110  A    between atoms: _262  and  _263
REMARK  111  A    between atoms: _262  and  _265
REMARK  112  A    between atoms: _265  and  _266
REMARK  113  A    between atoms: _269  and  _271
REMARK  114  A    between atoms: _271  and  _272
REMARK  115  A    between atoms: _274  and  _276
REMARK  116  A    between atoms: _276  and  _277
REMARK  117  A    between atoms: _276  and  _279
REMARK  118  A    between atoms: _279  and  _280
REMARK  119  A    between atoms: _280  and  _281
REMARK  120  A    between atoms: _281  and  _282
REMARK  121  A    between atoms: _291  and  _293
REMARK  122  A    between atoms: _293  and  _294
REMARK  123  A    between atoms: _293  and  _296
REMARK  124  A    between atoms: _296  and  _297
REMARK  125  A    between atoms: _297  and  _298
REMARK  126  A    between atoms: _298  and  _299
REMARK  127  A    between atoms: _308  and  _310
REMARK  128  A    between atoms: _310  and  _311
REMARK  129  A    between atoms: _310  and  _313
REMARK  130  A    between atoms: _313  and  _314
REMARK  131  A    between atoms: _317  and  _319
REMARK  132  A    between atoms: _319  and  _320
REMARK  133  A    between atoms: _319  and  _322
REMARK  134  A    between atoms: _322  and  _323
REMARK  135  A    between atoms: _326  and  _328
REMARK  136  A    between atoms: _328  and  _329
REMARK  137  A    between atoms: _328  and  _331
REMARK  138  A    between atoms: _331  and  _332
REMARK  139  A    between atoms: _335  and  _337
REMARK  140  A    between atoms: _337  and  _338
REMARK  141  A    between atoms: _337  and  _340
REMARK  142  A    between atoms: _340  and  _341
REMARK  143  A    between atoms: _344  and  _346
REMARK  144  A    between atoms: _346  and  _347
REMARK  145  A    between atoms: _346  and  _349
REMARK  146  A    between atoms: _349  and  _350
REMARK  147  A    between atoms: _353  and  _355
REMARK  148  A    between atoms: _355  and  _356
REMARK  149  A    between atoms: _358  and  _360
REMARK  150  A    between atoms: _360  and  _361
REMARK  151  A    between atoms: _364  and  _366
REMARK  152  A    between atoms: _366  and  _367
REMARK  153  A    between atoms: _366  and  _369
REMARK  154  A    between atoms: _369  and  _370
REMARK  155  A    between atoms: _373  and  _375
REMARK  156  A    between atoms: _375  and  _376
REMARK  157  A    between atoms: _375  and  _378
REMARK  158  A    between atoms: _378  and  _379
REMARK  159  A    between atoms: _382  and  _384
REMARK  160  A    between atoms: _384  and  _385
REMARK  161  A    between atoms: _384  and  _387
REMARK  162  A    between atoms: _387  and  _388
REMARK  163  A    between atoms: _391  and  _393
REMARK  164  A    between atoms: _393  and  _394
REMARK  165  A    between atoms: _393  and  _396
REMARK  166  A    between atoms: _399  and  _401
REMARK  167  A    between atoms: _401  and  _402
REMARK  168  A    between atoms: _401  and  _404
REMARK  169  A    between atoms: _404  and  _405
REMARK  170  A    between atoms: _408  and  _410
REMARK  171  A    between atoms: _410  and  _411
REMARK  172  A    between atoms: _410  and  _413
REMARK  173  A    between atoms: _413  and  _414
REMARK  174  A    between atoms: _414  and  _415
REMARK  175  A    between atoms: _415  and  _416
REMARK  176  A    between atoms: _416  and  _417
REMARK  177  A    between atoms: _421  and  _423
REMARK  178  A    between atoms: _423  and  _424
REMARK  179  A    between atoms: _423  and  _426
REMARK  180  A    between atoms: _426  and  _427
REMARK  181  A    between atoms: _427  and  _428
REMARK  182  A    between atoms: _430  and  _432
REMARK  183  A    between atoms: _432  and  _433
REMARK  184  A    between atoms: _432  and  _435
REMARK  185  A    between atoms: _435  and  _436
REMARK  186  A    between atoms: _439  and  _441
REMARK  187  A    between atoms: _441  and  _442
REMARK  188  A    between atoms: _444  and  _446
REMARK  189  A    between atoms: _446  and  _447
REMARK  190  A    between atoms: _449  and  _451
REMARK  191  A    between atoms: _451  and  _452
REMARK  192  A    between atoms: _451  and  _454
REMARK  193  A    between atoms: _454  and  _455
REMARK  194  A    between atoms: _458  and  _460
REMARK  195  A    between atoms: _460  and  _461
REMARK  196  A    between atoms: _463  and  _465
REMARK  197  A    between atoms: _465  and  _466
REMARK  198  A    between atoms: _468  and  _470
REMARK  199  A    between atoms: _470  and  _471
REMARK  200  A    between atoms: _470  and  _473
REMARK  201  A    between atoms: _473  and  _474
REMARK  202  A    between atoms: _480  and  _482
REMARK  203  A    between atoms: _482  and  _483
REMARK  204  A    between atoms: _482  and  _485
REMARK  205  A    between atoms: _485  and  _486
REMARK  206  A    between atoms: _489  and  _491
REMARK  207  A    between atoms: _491  and  _492
REMARK  208  A    between atoms: _491  and  _494
REMARK  209  A    between atoms: _497  and  _499
REMARK  210  A    between atoms: _499  and  _500
REMARK  211  A    between atoms: _499  and  _502
REMARK  212  A    between atoms: _502  and  _503
REMARK  213  A    between atoms: _506  and  _508
REMARK  214  A    between atoms: _508  and  _509
REMARK  215  A    between atoms: _508  and  _511
REMARK  216  A    between atoms: _511  and  _512
REMARK  217  A    between atoms: _516  and  _517
REMARK  218  A    between atoms: _522  and  _524
REMARK  219  A    between atoms: _524  and  _525
REMARK  220  A    between atoms: _524  and  _527
REMARK  221  A    between atoms: _530  and  _532
REMARK  222  A    between atoms: _532  and  _533
REMARK  223  A    between atoms: _532  and  _535
REMARK  224  A    between atoms: _535  and  _536
REMARK  225  A    between atoms: _541  and  _543
REMARK  226  A    between atoms: _543  and  _544
REMARK  227  A    between atoms: _543  and  _546
REMARK  228  A    between atoms: _546  and  _547
REMARK  229  A    between atoms: _550  and  _552
REMARK  230  A    between atoms: _552  and  _553
REMARK  231  A    between atoms: _552  and  _555
REMARK  232  A    between atoms: _555  and  _556
REMARK  233  A    between atoms: _559  and  _561
REMARK  234  A    between atoms: _561  and  _562
REMARK  235  A    between atoms: _564  and  _566
REMARK  236  A    between atoms: _566  and  _567
REMARK  237  A    between atoms: _566  and  _569
REMARK  238  A    between atoms: _569  and  _570
REMARK  239  A    between atoms: _570  and  _571
REMARK  240  A    between atoms: _571  and  _572
REMARK                            x       y       z     vdW  Elec       q    Type
REMARK                         _______ _______ _______ _____ _____    ______ ____
ROOT
ATOM      1  O   HOH     1      11.659  21.074   6.519  0.00  0.00    +0.000 OA
ENDROOT
TORSDOF 0
REMARK  Name = ../refined-set-2016/1ebw/1ebw_pocket.pdb
REMARK  240 active torsions:
REMARK  status: ('A' for Active; 'I' for Inactive)
REMARK    1  A    between atoms: _1  and  _3
REMARK    2  A    between atoms: _3  and  _4
REMARK    3  A    between atoms: _3  and  _6
REMARK    4  A    between atoms: _6  and  _7
REMARK    5  A    between atoms: _7  and  _8
REMARK    6  A    between atoms: _8  and  _9
REMARK    7  A    between atoms: _18  and  _20
REMARK    8  A    between atoms: _20  and  _21
REMARK    9  A    between atoms: _20  and  _23
REMARK   10  A    between atoms: _23  and  _24
REMARK   11  A    between atoms: _27  and  _29
REMARK   12  A    between atoms: _29  and  _30
REMARK   13  A    between atoms: _29  and  _32
REMARK   14  A    between atoms: _32  and  _33
REMARK   15  A    between atoms: _36  and  _38
REMARK   16  A    between atoms: _38  and  _39
REMARK   17  A    between atoms: _38  and  _41
REMARK   18  A    between atoms: _41  and  _42
REMARK   19  A    between atoms: _45  and  _47
REMARK   20  A    between atoms: _47  and  _48
REMARK   21  A    between atoms: _47  and  _50
REMARK   22  A    between atoms: _50  and  _51
REMARK   23  A    between atoms: _54  and  _56
REMARK   24  A    between atoms: _56  and  _57
REMARK   25  A    between atoms: _56  and  _59
REMARK   26  A    between atoms: _59  and  _60
REMARK   27  A    between atoms: _63  and  _65
REMARK   28  A    between atoms: _65  and  _66
REMARK   29  A    between atoms: _68  and  _70
REMARK   30  A    between atoms: _70  and  _71
REMARK   31  A    between atoms: _74  and  _76
REMARK   32  A    between atoms: _76  and  _77
REMARK   33  A    between atoms: _76  and  _79
REMARK   34  A    between atoms: _79  and  _80
REMARK   35  A    between atoms: _83  and  _85
REMARK   36  A    between atoms: _85  and  _86
REMARK   37  A    between atoms: _85  and  _88
REMARK   38  A    between atoms: _88  and  _89
REMARK   39  A    between atoms: _92  and  _94
REMARK   40  A    between atoms: _94  and  _95
REMARK   41  A    between atoms: _94  and  _97
REMARK   42  A    between atoms: _97  and  _98
REMARK   43  A    between atoms: _101  and  _103
REMARK   44  A    between atoms: _103  and  _104
REMARK   45  A    between atoms: _103  and  _106
REMARK   46  A    between atoms: _109  and  _111
REMARK   47  A    between atoms: _111  and  _112
REMARK   48  A    between atoms: _111  and  _114
REMARK   49  A    between atoms: _114  and  _115
REMARK   50  A    between atoms: _118  and  _120
REMARK   51  A    between atoms: _120  and  _121
REMARK   52  A    between atoms: _120  and  _123
REMARK   53  A    between atoms: _123  and  _124
REMARK   54  A    between atoms: _124  and  _125
REMARK   55  A    between atoms: _125  and  _126
REMARK   56  A    between atoms: _126  and  _127
REMARK   57  A    between atoms: _131  and  _133
REMARK   58  A    between atoms: _133  and  _134
REMARK   59  A    between atoms: _133  and  _136
REMARK   60  A    between atoms: _136  and  _137
REMARK   61  A    between atoms: _137  and  _138
REMARK   62  A    between atoms: _140  and  _142
REMARK   63  A    between atoms: _142  and  _143
REMARK   64  A    between atoms: _142  and  _145
REMARK   65  A    between atoms: _145  and  _146
REMARK   66  A    between atoms: _149  and  _151
REMARK   67  A    between atoms: _151  and  _152
REMARK   68  A    between atoms: _154  and  _156
REMARK   69  A    between atoms: _156  and  _157
REMARK   70  A    between atoms: _159  and  _161
REMARK   71  A    between atoms: _161  and  _162
REMARK   72  A    between atoms: _161  and  _164
REMARK   73  A    between atoms: _164  and  _165
REMARK   74  A    between atoms: _168  and  _170
REMARK   75  A    between atoms: _170  and  _171
REMARK   76  A    between atoms: _173  and  _175
REMARK   77  A    between atoms: _175  and  _176
REMARK   78  A    between atoms: _178  and  _180
REMARK   79  A    between atoms: _180  and  _181
REMARK   80  A    between atoms: _180  and  _183
REMARK   81  A    between atoms: _183  and  _184
REMARK   82  A    between atoms: _190  and  _192
REMARK   83  A    between atoms: _192  and  _193
REMARK   84  A    between atoms: _192  and  _195
REMARK   85  A    between atoms: _195  and  _196
REMARK   86  A    between atoms: _199  and  _201
REMARK   87  A    between atoms: _201  and  _202
REMARK   88  A    between atoms: _201  and  _204
REMARK   89  A    between atoms: _207  and  _209
REMARK   90  A    between atoms: _209  and  _210
REMARK   91  A    between atoms: _209  and  _212
REMARK   92  A    between atoms: _212  and  _213
REMARK   93  A    between atoms: _216  and  _218
REMARK   94  A    between atoms: _218  and  _219
REMARK   95  A    between atoms: _218  and  _221
REMARK   96  A    between atoms: _221  and  _222
REMARK   97  A    between atoms: _226  and  _227
REMARK   98  A    between atoms: _232  and  _234
REMARK   99  A    between atoms: _234  and  _235
REMARK  100  A    between atoms: _234  and  _237
REMARK  101  A    between atoms: _240  and  _242
REMARK  102  A    between atoms: _242  and  _243
REMARK  103  A    between atoms: _242  and  _245
REMARK  104  A    between atoms: _245  and  _246
REMARK  105  A    between atoms: _251  and  _253
REMARK  106  A    between atoms: _253  and  _254
REMARK  107  A    between atoms: _253  and  _256
REMARK  108  A    between atoms: _256  and  _257
REMARK  109  A    between atoms: _260  and  _262
REMARK  110  A    between atoms: _262  and  _263
REMARK  111  A    between atoms: _262  and  _265
REMARK  112  A    between atoms: _265  and  _266
REMARK  113  A    between atoms: _269  and  _271
REMARK  114  A    between atoms: _271  and  _272
REMARK  115  A    between atoms: _274  and  _276
REMARK  116  A    between atoms: _276  and  _277
REMARK  117  A    between atoms: _276  and  _279
REMARK  118  A    between atoms: _279  and  _280
REMARK  119  A    between atoms: _280  and  _281
REMARK  120  A    between atoms: _281  and  _282
REMARK  121  A    between atoms: _291  and  _293
REMARK  122  A    between atoms: _293  and  _294
REMARK  123  A    between atoms: _293  and  _296
REMARK  124  A    between atoms: _296  and  _297
REMARK  125  A    between atoms: _297  and  _298
REMARK  126  A    between atoms: _298  and  _299
REMARK  127  A    between atoms: _308  and  _310
REMARK  128  A    between atoms: _310  and  _311
REMARK  129  A    between atoms: _310  and  _313
REMARK  130  A    between atoms: _313  and  _314
REMARK  131  A    between atoms: _317  and  _319
REMARK  132  A    between atoms: _319  and  _320
REMARK  133  A    between atoms: _319  and  _322
REMARK  134  A    between atoms: _322  and  _323
REMARK  135  A    between atoms: _326  and  _328
REMARK  136  A    between atoms: _328  and  _329
REMARK  137  A    between atoms: _328  and  _331
REMARK  138  A    between atoms: _331  and  _332
REMARK  139  A    between atoms: _335  and  _337
REMARK  140  A    between atoms: _337  and  _338
REMARK  141  A    between atoms: _337  and  _340
REMARK  142  A    between atoms: _340  and  _341
REMARK  143  A    between atoms: _344  and  _346
REMARK  144  A    between atoms: _346  and  _347
REMARK  145  A    between atoms: _346  and  _349
REMARK  146  A    between atoms: _349  and  _350
REMARK  147  A    between atoms: _353  and  _355
REMARK  148  A    between atoms: _355  and  _356
REMARK  149  A    between atoms: _358  and  _360
REMARK  150  A    between atoms: _360  and  _361
REMARK  151  A    between atoms: _364  and  _366
REMARK  152  A    between atoms: _366  and  _367
REMARK  153  A    between atoms: _366  and  _369
REMARK  154  A    between atoms: _369  and  _370
REMARK  155  A    between atoms: _373  and  _375
REMARK  156  A    between atoms: _375  and  _376
REMARK  157  A    between atoms: _375  and  _378
REMARK  158  A    between atoms: _378  and  _379
REMARK  159  A    between atoms: _382  and  _384
REMARK  160  A    between atoms: _384  and  _385
REMARK  161  A    between atoms: _384  and  _387
REMARK  162  A    between atoms: _387  and  _388
REMARK  163  A    between atoms: _391  and  _393
REMARK  164  A    between atoms: _393  and  _394
REMARK  165  A    between atoms: _393  and  _396
REMARK  166  A    between atoms: _399  and  _401
REMARK  167  A    between atoms: _401  and  _402
REMARK  168  A    between atoms: _401  and  _404
REMARK  169  A    between atoms: _404  and  _405
REMARK  170  A    between atoms: _408  and  _410
REMARK  171  A    between atoms: _410  and  _411
REMARK  172  A    between atoms: _410  and  _413
REMARK  173  A    between atoms: _413  and  _414
REMARK  174  A    between atoms: _414  and  _415
REMARK  175  A    between atoms: _415  and  _416
REMARK  176  A    between atoms: _416  and  _417
REMARK  177  A    between atoms: _421  and  _423
REMARK  178  A    between atoms: _423  and  _424
REMARK  179  A    between atoms: _423  and  _426
REMARK  180  A    between atoms: _426  and  _427
REMARK  181  A    between atoms: _427  and  _428
REMARK  182  A    between atoms: _430  and  _432
REMARK  183  A    between atoms: _432  and  _433
REMARK  184  A    between atoms: _432  and  _435
REMARK  185  A    between atoms: _435  and  _436
REMARK  186  A    between atoms: _439  and  _441
REMARK  187  A    between atoms: _441  and  _442
REMARK  188  A    between atoms: _444  and  _446
REMARK  189  A    between atoms: _446  and  _447
REMARK  190  A    between atoms: _449  and  _451
REMARK  191  A    between atoms: _451  and  _452
REMARK  192  A    between atoms: _451  and  _454
REMARK  193  A    between atoms: _454  and  _455
REMARK  194  A    between atoms: _458  and  _460
REMARK  195  A    between atoms: _460  and  _461
REMARK  196  A    between atoms: _463  and  _465
REMARK  197  A    between atoms: _465  and  _466
REMARK  198  A    between atoms: _468  and  _470
REMARK  199  A    between atoms: _470  and  _471
REMARK  200  A    between atoms: _470  and  _473
REMARK  201  A    between atoms: _473  and  _474
REMARK  202  A    between atoms: _480  and  _482
REMARK  203  A    between atoms: _482  and  _483
REMARK  204  A    between atoms: _482  and  _485
REMARK  205  A    between atoms: _485  and  _486
REMARK  206  A    between atoms: _489  and  _491
REMARK  207  A    between atoms: _491  and  _492
REMARK  208  A    between atoms: _491  and  _494
REMARK  209  A    between atoms: _497  and  _499
REMARK  210  A    between atoms: _499  and  _500
REMARK  211  A    between atoms: _499  and  _502
REMARK  212  A    between atoms: _502  and  _503
REMARK  213  A    between atoms: _506  and  _508
REMARK  214  A    between atoms: _508  and  _509
REMARK  215  A    between atoms: _508  and  _511
REMARK  216  A    between atoms: _511  and  _512
REMARK  217  A    between atoms: _516  and  _517
REMARK  218  A    between atoms: _522  and  _524
REMARK  219  A    between atoms: _524  and  _525
REMARK  220  A    between atoms: _524  and  _527
REMARK  221  A    between atoms: _530  and  _532
REMARK  222  A    between atoms: _532  and  _533
REMARK  223  A    between atoms: _532  and  _535
REMARK  224  A    between atoms: _535  and  _536
REMARK  225  A    between atoms: _541  and  _543
REMARK  226  A    between atoms: _543  and  _544
REMARK  227  A    between atoms: _543  and  _546
REMARK  228  A    between atoms: _546  and  _547
REMARK  229  A    between atoms: _550  and  _552
REMARK  230  A    between atoms: _552  and  _553
REMARK  231  A    between atoms: _552  and  _555
REMARK  232  A    between atoms: _555  and  _556
REMARK  233  A    between atoms: _559  and  _561
REMARK  234  A    between atoms: _561  and  _562
REMARK  235  A    between atoms: _564  and  _566
REMARK  236  A    between atoms: _566  and  _567
REMARK  237  A    between atoms: _566  and  _569
REMARK  238  A    between atoms: _569  and  _570
REMARK  239  A    between atoms: _570  and  _571
REMARK  240  A    between atoms: _571  and  _572
REMARK                            x       y       z     vdW  Elec       q    Type
REMARK                         _______ _______ _______ _____ _____    ______ ____
ROOT
ATOM      1  O   HOH     1       3.809  26.399   7.482  0.00  0.00    +0.000 OA
ENDROOT
TORSDOF 0
REMARK  Name = ../refined-set-2016/1ebw/1ebw_pocket.pdb
REMARK  240 active torsions:
REMARK  status: ('A' for Active; 'I' for Inactive)
REMARK    1  A    between atoms: _1  and  _3
REMARK    2  A    between atoms: _3  and  _4
REMARK    3  A    between atoms: _3  and  _6
REMARK    4  A    between atoms: _6  and  _7
REMARK    5  A    between atoms: _7  and  _8
REMARK    6  A    between atoms: _8  and  _9
REMARK    7  A    between atoms: _18  and  _20
REMARK    8  A    between atoms: _20  and  _21
REMARK    9  A    between atoms: _20  and  _23
REMARK   10  A    between atoms: _23  and  _24
REMARK   11  A    between atoms: _27  and  _29
REMARK   12  A    between atoms: _29  and  _30
REMARK   13  A    between atoms: _29  and  _32
REMARK   14  A    between atoms: _32  and  _33
REMARK   15  A    between atoms: _36  and  _38
REMARK   16  A    between atoms: _38  and  _39
REMARK   17  A    between atoms: _38  and  _41
REMARK   18  A    between atoms: _41  and  _42
REMARK   19  A    between atoms: _45  and  _47
REMARK   20  A    between atoms: _47  and  _48
REMARK   21  A    between atoms: _47  and  _50
REMARK   22  A    between atoms: _50  and  _51
REMARK   23  A    between atoms: _54  and  _56
REMARK   24  A    between atoms: _56  and  _57
REMARK   25  A    between atoms: _56  and  _59
REMARK   26  A    between atoms: _59  and  _60
REMARK   27  A    between atoms: _63  and  _65
REMARK   28  A    between atoms: _65  and  _66
REMARK   29  A    between atoms: _68  and  _70
REMARK   30  A    between atoms: _70  and  _71
REMARK   31  A    between atoms: _74  and  _76
REMARK   32  A    between atoms: _76  and  _77
REMARK   33  A    between atoms: _76  and  _79
REMARK   34  A    between atoms: _79  and  _80
REMARK   35  A    between atoms: _83  and  _85
REMARK   36  A    between atoms: _85  and  _86
REMARK   37  A    between atoms: _85  and  _88
REMARK   38  A    between atoms: _88  and  _89
REMARK   39  A    between atoms: _92  and  _94
REMARK   40  A    between atoms: _94  and  _95
REMARK   41  A    between atoms: _94  and  _97
REMARK   42  A    between atoms: _97  and  _98
REMARK   43  A    between atoms: _101  and  _103
REMARK   44  A    between atoms: _103  and  _104
REMARK   45  A    between atoms: _103  and  _106
REMARK   46  A    between atoms: _109  and  _111
REMARK   47  A    between atoms: _111  and  _112
REMARK   48  A    between atoms: _111  and  _114
REMARK   49  A    between atoms: _114  and  _115
REMARK   50  A    between atoms: _118  and  _120
REMARK   51  A    between atoms: _120  and  _121
REMARK   52  A    between atoms: _120  and  _123
REMARK   53  A    between atoms: _123  and  _124
REMARK   54  A    between atoms: _124  and  _125
REMARK   55  A    between atoms: _125  and  _126
REMARK   56  A    between atoms: _126  and  _127
REMARK   57  A    between atoms: _131  and  _133
REMARK   58  A    between atoms: _133  and  _134
REMARK   59  A    between atoms: _133  and  _136
REMARK   60  A    between atoms: _136  and  _137
REMARK   61  A    between atoms: _137  and  _138
REMARK   62  A    between atoms: _140  and  _142
REMARK   63  A    between atoms: _142  and  _143
REMARK   64  A    between atoms: _142  and  _145
REMARK   65  A    between atoms: _145  and  _146
REMARK   66  A    between atoms: _149  and  _151
REMARK   67  A    between atoms: _151  and  _152
REMARK   68  A    between atoms: _154  and  _156
REMARK   69  A    between atoms: _156  and  _157
REMARK   70  A    between atoms: _159  and  _161
REMARK   71  A    between atoms: _161  and  _162
REMARK   72  A    between atoms: _161  and  _164
REMARK   73  A    between atoms: _164  and  _165
REMARK   74  A    between atoms: _168  and  _170
REMARK   75  A    between atoms: _170  and  _171
REMARK   76  A    between atoms: _173  and  _175
REMARK   77  A    between atoms: _175  and  _176
REMARK   78  A    between atoms: _178  and  _180
REMARK   79  A    between atoms: _180  and  _181
REMARK   80  A    between atoms: _180  and  _183
REMARK   81  A    between atoms: _183  and  _184
REMARK   82  A    between atoms: _190  and  _192
REMARK   83  A    between atoms: _192  and  _193
REMARK   84  A    between atoms: _192  and  _195
REMARK   85  A    between atoms: _195  and  _196
REMARK   86  A    between atoms: _199  and  _201
REMARK   87  A    between atoms: _201  and  _202
REMARK   88  A    between atoms: _201  and  _204
REMARK   89  A    between atoms: _207  and  _209
REMARK   90  A    between atoms: _209  and  _210
REMARK   91  A    between atoms: _209  and  _212
REMARK   92  A    between atoms: _212  and  _213
REMARK   93  A    between atoms: _216  and  _218
REMARK   94  A    between atoms: _218  and  _219
REMARK   95  A    between atoms: _218  and  _221
REMARK   96  A    between atoms: _221  and  _222
REMARK   97  A    between atoms: _226  and  _227
REMARK   98  A    between atoms: _232  and  _234
REMARK   99  A    between atoms: _234  and  _235
REMARK  100  A    between atoms: _234  and  _237
REMARK  101  A    between atoms: _240  and  _242
REMARK  102  A    between atoms: _242  and  _243
REMARK  103  A    between atoms: _242  and  _245
REMARK  104  A    between atoms: _245  and  _246
REMARK  105  A    between atoms: _251  and  _253
REMARK  106  A    between atoms: _253  and  _254
REMARK  107  A    between atoms: _253  and  _256
REMARK  108  A    between atoms: _256  and  _257
REMARK  109  A    between atoms: _260  and  _262
REMARK  110  A    between atoms: _262  and  _263
REMARK  111  A    between atoms: _262  and  _265
REMARK  112  A    between atoms: _265  and  _266
REMARK  113  A    between atoms: _269  and  _271
REMARK  114  A    between atoms: _271  and  _272
REMARK  115  A    between atoms: _274  and  _276
REMARK  116  A    between atoms: _276  and  _277
REMARK  117  A    between atoms: _276  and  _279
REMARK  118  A    between atoms: _279  and  _280
REMARK  119  A    between atoms: _280  and  _281
REMARK  120  A    between atoms: _281  and  _282
REMARK  121  A    between atoms: _291  and  _293
REMARK  122  A    between atoms: _293  and  _294
REMARK  123  A    between atoms: _293  and  _296
REMARK  124  A    between atoms: _296  and  _297
REMARK  125  A    between atoms: _297  and  _298
REMARK  126  A    between atoms: _298  and  _299
REMARK  127  A    between atoms: _308  and  _310
REMARK  128  A    between atoms: _310  and  _311
REMARK  129  A    between atoms: _310  and  _313
REMARK  130  A    between atoms: _313  and  _314
REMARK  131  A    between atoms: _317  and  _319
REMARK  132  A    between atoms: _319  and  _320
REMARK  133  A    between atoms: _319  and  _322
REMARK  134  A    between atoms: _322  and  _323
REMARK  135  A    between atoms: _326  and  _328
REMARK  136  A    between atoms: _328  and  _329
REMARK  137  A    between atoms: _328  and  _331
REMARK  138  A    between atoms: _331  and  _332
REMARK  139  A    between atoms: _335  and  _337
REMARK  140  A    between atoms: _337  and  _338
REMARK  141  A    between atoms: _337  and  _340
REMARK  142  A    between atoms: _340  and  _341
REMARK  143  A    between atoms: _344  and  _346
REMARK  144  A    between atoms: _346  and  _347
REMARK  145  A    between atoms: _346  and  _349
REMARK  146  A    between atoms: _349  and  _350
REMARK  147  A    between atoms: _353  and  _355
REMARK  148  A    between atoms: _355  and  _356
REMARK  149  A    between atoms: _358  and  _360
REMARK  150  A    between atoms: _360  and  _361
REMARK  151  A    between atoms: _364  and  _366
REMARK  152  A    between atoms: _366  and  _367
REMARK  153  A    between atoms: _366  and  _369
REMARK  154  A    between atoms: _369  and  _370
REMARK  155  A    between atoms: _373  and  _375
REMARK  156  A    between atoms: _375  and  _376
REMARK  157  A    between atoms: _375  and  _378
REMARK  158  A    between atoms: _378  and  _379
REMARK  159  A    between atoms: _382  and  _384
REMARK  160  A    between atoms: _384  and  _385
REMARK  161  A    between atoms: _384  and  _387
REMARK  162  A    between atoms: _387  and  _388
REMARK  163  A    between atoms: _391  and  _393
REMARK  164  A    between atoms: _393  and  _394
REMARK  165  A    between atoms: _393  and  _396
REMARK  166  A    between atoms: _399  and  _401
REMARK  167  A    between atoms: _401  and  _402
REMARK  168  A    between atoms: _401  and  _404
REMARK  169  A    between atoms: _404  and  _405
REMARK  170  A    between atoms: _408  and  _410
REMARK  171  A    between atoms: _410  and  _411
REMARK  172  A    between atoms: _410  and  _413
REMARK  173  A    between atoms: _413  and  _414
REMARK  174  A    between atoms: _414  and  _415
REMARK  175  A    between atoms: _415  and  _416
REMARK  176  A    between atoms: _416  and  _417
REMARK  177  A    between atoms: _421  and  _423
REMARK  178  A    between atoms: _423  and  _424
REMARK  179  A    between atoms: _423  and  _426
REMARK  180  A    between atoms: _426  and  _427
REMARK  181  A    between atoms: _427  and  _428
REMARK  182  A    between atoms: _430  and  _432
REMARK  183  A    between atoms: _432  and  _433
REMARK  184  A    between atoms: _432  and  _435
REMARK  185  A    between atoms: _435  and  _436
REMARK  186  A    between atoms: _439  and  _441
REMARK  187  A    between atoms: _441  and  _442
REMARK  188  A    between atoms: _444  and  _446
REMARK  189  A    between atoms: _446  and  _447
REMARK  190  A    between atoms: _449  and  _451
REMARK  191  A    between atoms: _451  and  _452
REMARK  192  A    between atoms: _451  and  _454
REMARK  193  A    between atoms: _454  and  _455
REMARK  194  A    between atoms: _458  and  _460
REMARK  195  A    between atoms: _460  and  _461
REMARK  196  A    between atoms: _463  and  _465
REMARK  197  A    between atoms: _465  and  _466
REMARK  198  A    between atoms: _468  and  _470
REMARK  199  A    between atoms: _470  and  _471
REMARK  200  A    between atoms: _470  and  _473
REMARK  201  A    between atoms: _473  and  _474
REMARK  202  A    between atoms: _480  and  _482
REMARK  203  A    between atoms: _482  and  _483
REMARK  204  A    between atoms: _482  and  _485
REMARK  205  A    between atoms: _485  and  _486
REMARK  206  A    between atoms: _489  and  _491
REMARK  207  A    between atoms: _491  and  _492
REMARK  208  A    between atoms: _491  and  _494
REMARK  209  A    between atoms: _497  and  _499
REMARK  210  A    between atoms: _499  and  _500
REMARK  211  A    between atoms: _499  and  _502
REMARK  212  A    between atoms: _502  and  _503
REMARK  213  A    between atoms: _506  and  _508
REMARK  214  A    between atoms: _508  and  _509
REMARK  215  A    between atoms: _508  and  _511
REMARK  216  A    between atoms: _511  and  _512
REMARK  217  A    between atoms: _516  and  _517
REMARK  218  A    between atoms: _522  and  _524
REMARK  219  A    between atoms: _524  and  _525
REMARK  220  A    between atoms: _524  and  _527
REMARK  221  A    between atoms: _530  and  _532
REMARK  222  A    between atoms: _532  and  _533
REMARK  223  A    between atoms: _532  and  _535
REMARK  224  A    between atoms: _535  and  _536
REMARK  225  A    between atoms: _541  and  _543
REMARK  226  A    between atoms: _543  and  _544
REMARK  227  A    between atoms: _543  and  _546
REMARK  228  A    between atoms: _546  and  _547
REMARK  229  A    between atoms: _550  and  _552
REMARK  230  A    between atoms: _552  and  _553
REMARK  231  A    between atoms: _552  and  _555
REMARK  232  A    between atoms: _555  and  _556
REMARK  233  A    between atoms: _559  and  _561
REMARK  234  A    between atoms: _561  and  _562
REMARK  235  A    between atoms: _564  and  _566
REMARK  236  A    between atoms: _566  and  _567
REMARK  237  A    between atoms: _566  and  _569
REMARK  238  A    between atoms: _569  and  _570
REMARK  239  A    between atoms: _570  and  _571
REMARK  240  A    between atoms: _571  and  _572
REMARK                            x       y       z     vdW  Elec       q    Type
REMARK                         _______ _______ _______ _____ _____    ______ ____
ROOT
ATOM      1  O   HOH     1       4.990  32.696   1.951  0.00  0.00    +0.000 OA
ENDROOT
TORSDOF 0
REMARK  Name = ../refined-set-2016/1ebw/1ebw_pocket.pdb
REMARK  240 active torsions:
REMARK  status: ('A' for Active; 'I' for Inactive)
REMARK    1  A    between atoms: _1  and  _3
REMARK    2  A    between atoms: _3  and  _4
REMARK    3  A    between atoms: _3  and  _6
REMARK    4  A    between atoms: _6  and  _7
REMARK    5  A    between atoms: _7  and  _8
REMARK    6  A    between atoms: _8  and  _9
REMARK    7  A    between atoms: _18  and  _20
REMARK    8  A    between atoms: _20  and  _21
REMARK    9  A    between atoms: _20  and  _23
REMARK   10  A    between atoms: _23  and  _24
REMARK   11  A    between atoms: _27  and  _29
REMARK   12  A    between atoms: _29  and  _30
REMARK   13  A    between atoms: _29  and  _32
REMARK   14  A    between atoms: _32  and  _33
REMARK   15  A    between atoms: _36  and  _38
REMARK   16  A    between atoms: _38  and  _39
REMARK   17  A    between atoms: _38  and  _41
REMARK   18  A    between atoms: _41  and  _42
REMARK   19  A    between atoms: _45  and  _47
REMARK   20  A    between atoms: _47  and  _48
REMARK   21  A    between atoms: _47  and  _50
REMARK   22  A    between atoms: _50  and  _51
REMARK   23  A    between atoms: _54  and  _56
REMARK   24  A    between atoms: _56  and  _57
REMARK   25  A    between atoms: _56  and  _59
REMARK   26  A    between atoms: _59  and  _60
REMARK   27  A    between atoms: _63  and  _65
REMARK   28  A    between atoms: _65  and  _66
REMARK   29  A    between atoms: _68  and  _70
REMARK   30  A    between atoms: _70  and  _71
REMARK   31  A    between atoms: _74  and  _76
REMARK   32  A    between atoms: _76  and  _77
REMARK   33  A    between atoms: _76  and  _79
REMARK   34  A    between atoms: _79  and  _80
REMARK   35  A    between atoms: _83  and  _85
REMARK   36  A    between atoms: _85  and  _86
REMARK   37  A    between atoms: _85  and  _88
REMARK   38  A    between atoms: _88  and  _89
REMARK   39  A    between atoms: _92  and  _94
REMARK   40  A    between atoms: _94  and  _95
REMARK   41  A    between atoms: _94  and  _97
REMARK   42  A    between atoms: _97  and  _98
REMARK   43  A    between atoms: _101  and  _103
REMARK   44  A    between atoms: _103  and  _104
REMARK   45  A    between atoms: _103  and  _106
REMARK   46  A    between atoms: _109  and  _111
REMARK   47  A    between atoms: _111  and  _112
REMARK   48  A    between atoms: _111  and  _114
REMARK   49  A    between atoms: _114  and  _115
REMARK   50  A    between atoms: _118  and  _120
REMARK   51  A    between atoms: _120  and  _121
REMARK   52  A    between atoms: _120  and  _123
REMARK   53  A    between atoms: _123  and  _124
REMARK   54  A    between atoms: _124  and  _125
REMARK   55  A    between atoms: _125  and  _126
REMARK   56  A    between atoms: _126  and  _127
REMARK   57  A    between atoms: _131  and  _133
REMARK   58  A    between atoms: _133  and  _134
REMARK   59  A    between atoms: _133  and  _136
REMARK   60  A    between atoms: _136  and  _137
REMARK   61  A    between atoms: _137  and  _138
REMARK   62  A    between atoms: _140  and  _142
REMARK   63  A    between atoms: _142  and  _143
REMARK   64  A    between atoms: _142  and  _145
REMARK   65  A    between atoms: _145  and  _146
REMARK   66  A    between atoms: _149  and  _151
REMARK   67  A    between atoms: _151  and  _152
REMARK   68  A    between atoms: _154  and  _156
REMARK   69  A    between atoms: _156  and  _157
REMARK   70  A    between atoms: _159  and  _161
REMARK   71  A    between atoms: _161  and  _162
REMARK   72  A    between atoms: _161  and  _164
REMARK   73  A    between atoms: _164  and  _165
REMARK   74  A    between atoms: _168  and  _170
REMARK   75  A    between atoms: _170  and  _171
REMARK   76  A    between atoms: _173  and  _175
REMARK   77  A    between atoms: _175  and  _176
REMARK   78  A    between atoms: _178  and  _180
REMARK   79  A    between atoms: _180  and  _181
REMARK   80  A    between atoms: _180  and  _183
REMARK   81  A    between atoms: _183  and  _184
REMARK   82  A    between atoms: _190  and  _192
REMARK   83  A    between atoms: _192  and  _193
REMARK   84  A    between atoms: _192  and  _195
REMARK   85  A    between atoms: _195  and  _196
REMARK   86  A    between atoms: _199  and  _201
REMARK   87  A    between atoms: _201  and  _202
REMARK   88  A    between atoms: _201  and  _204
REMARK   89  A    between atoms: _207  and  _209
REMARK   90  A    between atoms: _209  and  _210
REMARK   91  A    between atoms: _209  and  _212
REMARK   92  A    between atoms: _212  and  _213
REMARK   93  A    between atoms: _216  and  _218
REMARK   94  A    between atoms: _218  and  _219
REMARK   95  A    between atoms: _218  and  _221
REMARK   96  A    between atoms: _221  and  _222
REMARK   97  A    between atoms: _226  and  _227
REMARK   98  A    between atoms: _232  and  _234
REMARK   99  A    between atoms: _234  and  _235
REMARK  100  A    between atoms: _234  and  _237
REMARK  101  A    between atoms: _240  and  _242
REMARK  102  A    between atoms: _242  and  _243
REMARK  103  A    between atoms: _242  and  _245
REMARK  104  A    between atoms: _245  and  _246
REMARK  105  A    between atoms: _251  and  _253
REMARK  106  A    between atoms: _253  and  _254
REMARK  107  A    between atoms: _253  and  _256
REMARK  108  A    between atoms: _256  and  _257
REMARK  109  A    between atoms: _260  and  _262
REMARK  110  A    between atoms: _262  and  _263
REMARK  111  A    between atoms: _262  and  _265
REMARK  112  A    between atoms: _265  and  _266
REMARK  113  A    between atoms: _269  and  _271
REMARK  114  A    between atoms: _271  and  _272
REMARK  115  A    between atoms: _274  and  _276
REMARK  116  A    between atoms: _276  and  _277
REMARK  117  A    between atoms: _276  and  _279
REMARK  118  A    between atoms: _279  and  _280
REMARK  119  A    between atoms: _280  and  _281
REMARK  120  A    between atoms: _281  and  _282
REMARK  121  A    between atoms: _291  and  _293
REMARK  122  A    between atoms: _293  and  _294
REMARK  123  A    between atoms: _293  and  _296
REMARK  124  A    between atoms: _296  and  _297
REMARK  125  A    between atoms: _297  and  _298
REMARK  126  A    between atoms: _298  and  _299
REMARK  127  A    between atoms: _308  and  _310
REMARK  128  A    between atoms: _310  and  _311
REMARK  129  A    between atoms: _310  and  _313
REMARK  130  A    between atoms: _313  and  _314
REMARK  131  A    between atoms: _317  and  _319
REMARK  132  A    between atoms: _319  and  _320
REMARK  133  A    between atoms: _319  and  _322
REMARK  134  A    between atoms: _322  and  _323
REMARK  135  A    between atoms: _326  and  _328
REMARK  136  A    between atoms: _328  and  _329
REMARK  137  A    between atoms: _328  and  _331
REMARK  138  A    between atoms: _331  and  _332
REMARK  139  A    between atoms: _335  and  _337
REMARK  140  A    between atoms: _337  and  _338
REMARK  141  A    between atoms: _337  and  _340
REMARK  142  A    between atoms: _340  and  _341
REMARK  143  A    between atoms: _344  and  _346
REMARK  144  A    between atoms: _346  and  _347
REMARK  145  A    between atoms: _346  and  _349
REMARK  146  A    between atoms: _349  and  _350
REMARK  147  A    between atoms: _353  and  _355
REMARK  148  A    between atoms: _355  and  _356
REMARK  149  A    between atoms: _358  and  _360
REMARK  150  A    between atoms: _360  and  _361
REMARK  151  A    between atoms: _364  and  _366
REMARK  152  A    between atoms: _366  and  _367
REMARK  153  A    between atoms: _366  and  _369
REMARK  154  A    between atoms: _369  and  _370
REMARK  155  A    between atoms: _373  and  _375
REMARK  156  A    between atoms: _375  and  _376
REMARK  157  A    between atoms: _375  and  _378
REMARK  158  A    between atoms: _378  and  _379
REMARK  159  A    between atoms: _382  and  _384
REMARK  160  A    between atoms: _384  and  _385
REMARK  161  A    between atoms: _384  and  _387
REMARK  162  A    between atoms: _387  and  _388
REMARK  163  A    between atoms: _391  and  _393
REMARK  164  A    between atoms: _393  and  _394
REMARK  165  A    between atoms: _393  and  _396
REMARK  166  A    between atoms: _399  and  _401
REMARK  167  A    between atoms: _401  and  _402
REMARK  168  A    between atoms: _401  and  _404
REMARK  169  A    between atoms: _404  and  _405
REMARK  170  A    between atoms: _408  and  _410
REMARK  171  A    between atoms: _410  and  _411
REMARK  172  A    between atoms: _410  and  _413
REMARK  173  A    between atoms: _413  and  _414
REMARK  174  A    between atoms: _414  and  _415
REMARK  175  A    between atoms: _415  and  _416
REMARK  176  A    between atoms: _416  and  _417
REMARK  177  A    between atoms: _421  and  _423
REMARK  178  A    between atoms: _423  and  _424
REMARK  179  A    between atoms: _423  and  _426
REMARK  180  A    between atoms: _426  and  _427
REMARK  181  A    between atoms: _427  and  _428
REMARK  182  A    between atoms: _430  and  _432
REMARK  183  A    between atoms: _432  and  _433
REMARK  184  A    between atoms: _432  and  _435
REMARK  185  A    between atoms: _435  and  _436
REMARK  186  A    between atoms: _439  and  _441
REMARK  187  A    between atoms: _441  and  _442
REMARK  188  A    between atoms: _444  and  _446
REMARK  189  A    between atoms: _446  and  _447
REMARK  190  A    between atoms: _449  and  _451
REMARK  191  A    between atoms: _451  and  _452
REMARK  192  A    between atoms: _451  and  _454
REMARK  193  A    between atoms: _454  and  _455
REMARK  194  A    between atoms: _458  and  _460
REMARK  195  A    between atoms: _460  and  _461
REMARK  196  A    between atoms: _463  and  _465
REMARK  197  A    between atoms: _465  and  _466
REMARK  198  A    between atoms: _468  and  _470
REMARK  199  A    between atoms: _470  and  _471
REMARK  200  A    between atoms: _470  and  _473
REMARK  201  A    between atoms: _473  and  _474
REMARK  202  A    between atoms: _480  and  _482
REMARK  203  A    between atoms: _482  and  _483
REMARK  204  A    between atoms: _482  and  _485
REMARK  205  A    between atoms: _485  and  _486
REMARK  206  A    between atoms: _489  and  _491
REMARK  207  A    between atoms: _491  and  _492
REMARK  208  A    between atoms: _491  and  _494
REMARK  209  A    between atoms: _497  and  _499
REMARK  210  A    between atoms: _499  and  _500
REMARK  211  A    between atoms: _499  and  _502
REMARK  212  A    between atoms: _502  and  _503
REMARK  213  A    between atoms: _506  and  _508
REMARK  214  A    between atoms: _508  and  _509
REMARK  215  A    between atoms: _508  and  _511
REMARK  216  A    between atoms: _511  and  _512
REMARK  217  A    between atoms: _516  and  _517
REMARK  218  A    between atoms: _522  and  _524
REMARK  219  A    between atoms: _524  and  _525
REMARK  220  A    between atoms: _524  and  _527
REMARK  221  A    between atoms: _530  and  _532
REMARK  222  A    between atoms: _532  and  _533
REMARK  223  A    between atoms: _532  and  _535
REMARK  224  A    between atoms: _535  and  _536
REMARK  225  A    between atoms: _541  and  _543
REMARK  226  A    between atoms: _543  and  _544
REMARK  227  A    between atoms: _543  and  _546
REMARK  228  A    between atoms: _546  and  _547
REMARK  229  A    between atoms: _550  and  _552
REMARK  230  A    between atoms: _552  and  _553
REMARK  231  A    between atoms: _552  and  _555
REMARK  232  A    between atoms: _555  and  _556
REMARK  233  A    between atoms: _559  and  _561
REMARK  234  A    between atoms: _561  and  _562
REMARK  235  A    between atoms: _564  and  _566
REMARK  236  A    between atoms: _566  and  _567
REMARK  237  A    between atoms: _566  and  _569
REMARK  238  A    between atoms: _569  and  _570
REMARK  239  A    between atoms: _570  and  _571
REMARK  240  A    between atoms: _571  and  _572
REMARK                            x       y       z     vdW  Elec       q    Type
REMARK                         _______ _______ _______ _____ _____    ______ ____
ROOT
ATOM      1  O   HOH     1       4.632  28.894   7.794  0.00  0.00    +0.000 OA
ENDROOT
TORSDOF 0
REMARK  Name = ../refined-set-2016/1ebw/1ebw_pocket.pdb
REMARK  240 active torsions:
REMARK  status: ('A' for Active; 'I' for Inactive)
REMARK    1  A    between atoms: _1  and  _3
REMARK    2  A    between atoms: _3  and  _4
REMARK    3  A    between atoms: _3  and  _6
REMARK    4  A    between atoms: _6  and  _7
REMARK    5  A    between atoms: _7  and  _8
REMARK    6  A    between atoms: _8  and  _9
REMARK    7  A    between atoms: _18  and  _20
REMARK    8  A    between atoms: _20  and  _21
REMARK    9  A    between atoms: _20  and  _23
REMARK   10  A    between atoms: _23  and  _24
REMARK   11  A    between atoms: _27  and  _29
REMARK   12  A    between atoms: _29  and  _30
REMARK   13  A    between atoms: _29  and  _32
REMARK   14  A    between atoms: _32  and  _33
REMARK   15  A    between atoms: _36  and  _38
REMARK   16  A    between atoms: _38  and  _39
REMARK   17  A    between atoms: _38  and  _41
REMARK   18  A    between atoms: _41  and  _42
REMARK   19  A    between atoms: _45  and  _47
REMARK   20  A    between atoms: _47  and  _48
REMARK   21  A    between atoms: _47  and  _50
REMARK   22  A    between atoms: _50  and  _51
REMARK   23  A    between atoms: _54  and  _56
REMARK   24  A    between atoms: _56  and  _57
REMARK   25  A    between atoms: _56  and  _59
REMARK   26  A    between atoms: _59  and  _60
REMARK   27  A    between atoms: _63  and  _65
REMARK   28  A    between atoms: _65  and  _66
REMARK   29  A    between atoms: _68  and  _70
REMARK   30  A    between atoms: _70  and  _71
REMARK   31  A    between atoms: _74  and  _76
REMARK   32  A    between atoms: _76  and  _77
REMARK   33  A    between atoms: _76  and  _79
REMARK   34  A    between atoms: _79  and  _80
REMARK   35  A    between atoms: _83  and  _85
REMARK   36  A    between atoms: _85  and  _86
REMARK   37  A    between atoms: _85  and  _88
REMARK   38  A    between atoms: _88  and  _89
REMARK   39  A    between atoms: _92  and  _94
REMARK   40  A    between atoms: _94  and  _95
REMARK   41  A    between atoms: _94  and  _97
REMARK   42  A    between atoms: _97  and  _98
REMARK   43  A    between atoms: _101  and  _103
REMARK   44  A    between atoms: _103  and  _104
REMARK   45  A    between atoms: _103  and  _106
REMARK   46  A    between atoms: _109  and  _111
REMARK   47  A    between atoms: _111  and  _112
REMARK   48  A    between atoms: _111  and  _114
REMARK   49  A    between atoms: _114  and  _115
REMARK   50  A    between atoms: _118  and  _120
REMARK   51  A    between atoms: _120  and  _121
REMARK   52  A    between atoms: _120  and  _123
REMARK   53  A    between atoms: _123  and  _124
REMARK   54  A    between atoms: _124  and  _125
REMARK   55  A    between atoms: _125  and  _126
REMARK   56  A    between atoms: _126  and  _127
REMARK   57  A    between atoms: _131  and  _133
REMARK   58  A    between atoms: _133  and  _134
REMARK   59  A    between atoms: _133  and  _136
REMARK   60  A    between atoms: _136  and  _137
REMARK   61  A    between atoms: _137  and  _138
REMARK   62  A    between atoms: _140  and  _142
REMARK   63  A    between atoms: _142  and  _143
REMARK   64  A    between atoms: _142  and  _145
REMARK   65  A    between atoms: _145  and  _146
REMARK   66  A    between atoms: _149  and  _151
REMARK   67  A    between atoms: _151  and  _152
REMARK   68  A    between atoms: _154  and  _156
REMARK   69  A    between atoms: _156  and  _157
REMARK   70  A    between atoms: _159  and  _161
REMARK   71  A    between atoms: _161  and  _162
REMARK   72  A    between atoms: _161  and  _164
REMARK   73  A    between atoms: _164  and  _165
REMARK   74  A    between atoms: _168  and  _170
REMARK   75  A    between atoms: _170  and  _171
REMARK   76  A    between atoms: _173  and  _175
REMARK   77  A    between atoms: _175  and  _176
REMARK   78  A    between atoms: _178  and  _180
REMARK   79  A    between atoms: _180  and  _181
REMARK   80  A    between atoms: _180  and  _183
REMARK   81  A    between atoms: _183  and  _184
REMARK   82  A    between atoms: _190  and  _192
REMARK   83  A    between atoms: _192  and  _193
REMARK   84  A    between atoms: _192  and  _195
REMARK   85  A    between atoms: _195  and  _196
REMARK   86  A    between atoms: _199  and  _201
REMARK   87  A    between atoms: _201  and  _202
REMARK   88  A    between atoms: _201  and  _204
REMARK   89  A    between atoms: _207  and  _209
REMARK   90  A    between atoms: _209  and  _210
REMARK   91  A    between atoms: _209  and  _212
REMARK   92  A    between atoms: _212  and  _213
REMARK   93  A    between atoms: _216  and  _218
REMARK   94  A    between atoms: _218  and  _219
REMARK   95  A    between atoms: _218  and  _221
REMARK   96  A    between atoms: _221  and  _222
REMARK   97  A    between atoms: _226  and  _227
REMARK   98  A    between atoms: _232  and  _234
REMARK   99  A    between atoms: _234  and  _235
REMARK  100  A    between atoms: _234  and  _237
REMARK  101  A    between atoms: _240  and  _242
REMARK  102  A    between atoms: _242  and  _243
REMARK  103  A    between atoms: _242  and  _245
REMARK  104  A    between atoms: _245  and  _246
REMARK  105  A    between atoms: _251  and  _253
REMARK  106  A    between atoms: _253  and  _254
REMARK  107  A    between atoms: _253  and  _256
REMARK  108  A    between atoms: _256  and  _257
REMARK  109  A    between atoms: _260  and  _262
REMARK  110  A    between atoms: _262  and  _263
REMARK  111  A    between atoms: _262  and  _265
REMARK  112  A    between atoms: _265  and  _266
REMARK  113  A    between atoms: _269  and  _271
REMARK  114  A    between atoms: _271  and  _272
REMARK  115  A    between atoms: _274  and  _276
REMARK  116  A    between atoms: _276  and  _277
REMARK  117  A    between atoms: _276  and  _279
REMARK  118  A    between atoms: _279  and  _280
REMARK  119  A    between atoms: _280  and  _281
REMARK  120  A    between atoms: _281  and  _282
REMARK  121  A    between atoms: _291  and  _293
REMARK  122  A    between atoms: _293  and  _294
REMARK  123  A    between atoms: _293  and  _296
REMARK  124  A    between atoms: _296  and  _297
REMARK  125  A    between atoms: _297  and  _298
REMARK  126  A    between atoms: _298  and  _299
REMARK  127  A    between atoms: _308  and  _310
REMARK  128  A    between atoms: _310  and  _311
REMARK  129  A    between atoms: _310  and  _313
REMARK  130  A    between atoms: _313  and  _314
REMARK  131  A    between atoms: _317  and  _319
REMARK  132  A    between atoms: _319  and  _320
REMARK  133  A    between atoms: _319  and  _322
REMARK  134  A    between atoms: _322  and  _323
REMARK  135  A    between atoms: _326  and  _328
REMARK  136  A    between atoms: _328  and  _329
REMARK  137  A    between atoms: _328  and  _331
REMARK  138  A    between atoms: _331  and  _332
REMARK  139  A    between atoms: _335  and  _337
REMARK  140  A    between atoms: _337  and  _338
REMARK  141  A    between atoms: _337  and  _340
REMARK  142  A    between atoms: _340  and  _341
REMARK  143  A    between atoms: _344  and  _346
REMARK  144  A    between atoms: _346  and  _347
REMARK  145  A    between atoms: _346  and  _349
REMARK  146  A    between atoms: _349  and  _350
REMARK  147  A    between atoms: _353  and  _355
REMARK  148  A    between atoms: _355  and  _356
REMARK  149  A    between atoms: _358  and  _360
REMARK  150  A    between atoms: _360  and  _361
REMARK  151  A    between atoms: _364  and  _366
REMARK  152  A    between atoms: _366  and  _367
REMARK  153  A    between atoms: _366  and  _369
REMARK  154  A    between atoms: _369  and  _370
REMARK  155  A    between atoms: _373  and  _375
REMARK  156  A    between atoms: _375  and  _376
REMARK  157  A    between atoms: _375  and  _378
REMARK  158  A    between atoms: _378  and  _379
REMARK  159  A    between atoms: _382  and  _384
REMARK  160  A    between atoms: _384  and  _385
REMARK  161  A    between atoms: _384  and  _387
REMARK  162  A    between atoms: _387  and  _388
REMARK  163  A    between atoms: _391  and  _393
REMARK  164  A    between atoms: _393  and  _394
REMARK  165  A    between atoms: _393  and  _396
REMARK  166  A    between atoms: _399  and  _401
REMARK  167  A    between atoms: _401  and  _402
REMARK  168  A    between atoms: _401  and  _404
REMARK  169  A    between atoms: _404  and  _405
REMARK  170  A    between atoms: _408  and  _410
REMARK  171  A    between atoms: _410  and  _411
REMARK  172  A    between atoms: _410  and  _413
REMARK  173  A    between atoms: _413  and  _414
REMARK  174  A    between atoms: _414  and  _415
REMARK  175  A    between atoms: _415  and  _416
REMARK  176  A    between atoms: _416  and  _417
REMARK  177  A    between atoms: _421  and  _423
REMARK  178  A    between atoms: _423  and  _424
REMARK  179  A    between atoms: _423  and  _426
REMARK  180  A    between atoms: _426  and  _427
REMARK  181  A    between atoms: _427  and  _428
REMARK  182  A    between atoms: _430  and  _432
REMARK  183  A    between atoms: _432  and  _433
REMARK  184  A    between atoms: _432  and  _435
REMARK  185  A    between atoms: _435  and  _436
REMARK  186  A    between atoms: _439  and  _441
REMARK  187  A    between atoms: _441  and  _442
REMARK  188  A    between atoms: _444  and  _446
REMARK  189  A    between atoms: _446  and  _447
REMARK  190  A    between atoms: _449  and  _451
REMARK  191  A    between atoms: _451  and  _452
REMARK  192  A    between atoms: _451  and  _454
REMARK  193  A    between atoms: _454  and  _455
REMARK  194  A    between atoms: _458  and  _460
REMARK  195  A    between atoms: _460  and  _461
REMARK  196  A    between atoms: _463  and  _465
REMARK  197  A    between atoms: _465  and  _466
REMARK  198  A    between atoms: _468  and  _470
REMARK  199  A    between atoms: _470  and  _471
REMARK  200  A    between atoms: _470  and  _473
REMARK  201  A    between atoms: _473  and  _474
REMARK  202  A    between atoms: _480  and  _482
REMARK  203  A    between atoms: _482  and  _483
REMARK  204  A    between atoms: _482  and  _485
REMARK  205  A    between atoms: _485  and  _486
REMARK  206  A    between atoms: _489  and  _491
REMARK  207  A    between atoms: _491  and  _492
REMARK  208  A    between atoms: _491  and  _494
REMARK  209  A    between atoms: _497  and  _499
REMARK  210  A    between atoms: _499  and  _500
REMARK  211  A    between atoms: _499  and  _502
REMARK  212  A    between atoms: _502  and  _503
REMARK  213  A    between atoms: _506  and  _508
REMARK  214  A    between atoms: _508  and  _509
REMARK  215  A    between atoms: _508  and  _511
REMARK  216  A    between atoms: _511  and  _512
REMARK  217  A    between atoms: _516  and  _517
REMARK  218  A    between atoms: _522  and  _524
REMARK  219  A    between atoms: _524  and  _525
REMARK  220  A    between atoms: _524  and  _527
REMARK  221  A    between atoms: _530  and  _532
REMARK  222  A    between atoms: _532  and  _533
REMARK  223  A    between atoms: _532  and  _535
REMARK  224  A    between atoms: _535  and  _536
REMARK  225  A    between atoms: _541  and  _543
REMARK  226  A    between atoms: _543  and  _544
REMARK  227  A    between atoms: _543  and  _546
REMARK  228  A    between atoms: _546  and  _547
REMARK  229  A    between atoms: _550  and  _552
REMARK  230  A    between atoms: _552  and  _553
REMARK  231  A    between atoms: _552  and  _555
REMARK  232  A    between atoms: _555  and  _556
REMARK  233  A    between atoms: _559  and  _561
REMARK  234  A    between atoms: _561  and  _562
REMARK  235  A    between atoms: _564  and  _566
REMARK  236  A    between atoms: _566  and  _567
REMARK  237  A    between atoms: _566  and  _569
REMARK  238  A    between atoms: _569  and  _570
REMARK  239  A    between atoms: _570  and  _571
REMARK  240  A    between atoms: _571  and  _572
REMARK                            x       y       z     vdW  Elec       q    Type
REMARK                         _______ _______ _______ _____ _____    ______ ____
ROOT
ATOM      1  O   HOH     1      20.911  16.981  10.340  0.00  0.00    +0.000 OA
ENDROOT
TORSDOF 0
REMARK  Name = ../refined-set-2016/1ebw/1ebw_pocket.pdb
REMARK  240 active torsions:
REMARK  status: ('A' for Active; 'I' for Inactive)
REMARK    1  A    between atoms: _1  and  _3
REMARK    2  A    between atoms: _3  and  _4
REMARK    3  A    between atoms: _3  and  _6
REMARK    4  A    between atoms: _6  and  _7
REMARK    5  A    between atoms: _7  and  _8
REMARK    6  A    between atoms: _8  and  _9
REMARK    7  A    between atoms: _18  and  _20
REMARK    8  A    between atoms: _20  and  _21
REMARK    9  A    between atoms: _20  and  _23
REMARK   10  A    between atoms: _23  and  _24
REMARK   11  A    between atoms: _27  and  _29
REMARK   12  A    between atoms: _29  and  _30
REMARK   13  A    between atoms: _29  and  _32
REMARK   14  A    between atoms: _32  and  _33
REMARK   15  A    between atoms: _36  and  _38
REMARK   16  A    between atoms: _38  and  _39
REMARK   17  A    between atoms: _38  and  _41
REMARK   18  A    between atoms: _41  and  _42
REMARK   19  A    between atoms: _45  and  _47
REMARK   20  A    between atoms: _47  and  _48
REMARK   21  A    between atoms: _47  and  _50
REMARK   22  A    between atoms: _50  and  _51
REMARK   23  A    between atoms: _54  and  _56
REMARK   24  A    between atoms: _56  and  _57
REMARK   25  A    between atoms: _56  and  _59
REMARK   26  A    between atoms: _59  and  _60
REMARK   27  A    between atoms: _63  and  _65
REMARK   28  A    between atoms: _65  and  _66
REMARK   29  A    between atoms: _68  and  _70
REMARK   30  A    between atoms: _70  and  _71
REMARK   31  A    between atoms: _74  and  _76
REMARK   32  A    between atoms: _76  and  _77
REMARK   33  A    between atoms: _76  and  _79
REMARK   34  A    between atoms: _79  and  _80
REMARK   35  A    between atoms: _83  and  _85
REMARK   36  A    between atoms: _85  and  _86
REMARK   37  A    between atoms: _85  and  _88
REMARK   38  A    between atoms: _88  and  _89
REMARK   39  A    between atoms: _92  and  _94
REMARK   40  A    between atoms: _94  and  _95
REMARK   41  A    between atoms: _94  and  _97
REMARK   42  A    between atoms: _97  and  _98
REMARK   43  A    between atoms: _101  and  _103
REMARK   44  A    between atoms: _103  and  _104
REMARK   45  A    between atoms: _103  and  _106
REMARK   46  A    between atoms: _109  and  _111
REMARK   47  A    between atoms: _111  and  _112
REMARK   48  A    between atoms: _111  and  _114
REMARK   49  A    between atoms: _114  and  _115
REMARK   50  A    between atoms: _118  and  _120
REMARK   51  A    between atoms: _120  and  _121
REMARK   52  A    between atoms: _120  and  _123
REMARK   53  A    between atoms: _123  and  _124
REMARK   54  A    between atoms: _124  and  _125
REMARK   55  A    between atoms: _125  and  _126
REMARK   56  A    between atoms: _126  and  _127
REMARK   57  A    between atoms: _131  and  _133
REMARK   58  A    between atoms: _133  and  _134
REMARK   59  A    between atoms: _133  and  _136
REMARK   60  A    between atoms: _136  and  _137
REMARK   61  A    between atoms: _137  and  _138
REMARK   62  A    between atoms: _140  and  _142
REMARK   63  A    between atoms: _142  and  _143
REMARK   64  A    between atoms: _142  and  _145
REMARK   65  A    between atoms: _145  and  _146
REMARK   66  A    between atoms: _149  and  _151
REMARK   67  A    between atoms: _151  and  _152
REMARK   68  A    between atoms: _154  and  _156
REMARK   69  A    between atoms: _156  and  _157
REMARK   70  A    between atoms: _159  and  _161
REMARK   71  A    between atoms: _161  and  _162
REMARK   72  A    between atoms: _161  and  _164
REMARK   73  A    between atoms: _164  and  _165
REMARK   74  A    between atoms: _168  and  _170
REMARK   75  A    between atoms: _170  and  _171
REMARK   76  A    between atoms: _173  and  _175
REMARK   77  A    between atoms: _175  and  _176
REMARK   78  A    between atoms: _178  and  _180
REMARK   79  A    between atoms: _180  and  _181
REMARK   80  A    between atoms: _180  and  _183
REMARK   81  A    between atoms: _183  and  _184
REMARK   82  A    between atoms: _190  and  _192
REMARK   83  A    between atoms: _192  and  _193
REMARK   84  A    between atoms: _192  and  _195
REMARK   85  A    between atoms: _195  and  _196
REMARK   86  A    between atoms: _199  and  _201
REMARK   87  A    between atoms: _201  and  _202
REMARK   88  A    between atoms: _201  and  _204
REMARK   89  A    between atoms: _207  and  _209
REMARK   90  A    between atoms: _209  and  _210
REMARK   91  A    between atoms: _209  and  _212
REMARK   92  A    between atoms: _212  and  _213
REMARK   93  A    between atoms: _216  and  _218
REMARK   94  A    between atoms: _218  and  _219
REMARK   95  A    between atoms: _218  and  _221
REMARK   96  A    between atoms: _221  and  _222
REMARK   97  A    between atoms: _226  and  _227
REMARK   98  A    between atoms: _232  and  _234
REMARK   99  A    between atoms: _234  and  _235
REMARK  100  A    between atoms: _234  and  _237
REMARK  101  A    between atoms: _240  and  _242
REMARK  102  A    between atoms: _242  and  _243
REMARK  103  A    between atoms: _242  and  _245
REMARK  104  A    between atoms: _245  and  _246
REMARK  105  A    between atoms: _251  and  _253
REMARK  106  A    between atoms: _253  and  _254
REMARK  107  A    between atoms: _253  and  _256
REMARK  108  A    between atoms: _256  and  _257
REMARK  109  A    between atoms: _260  and  _262
REMARK  110  A    between atoms: _262  and  _263
REMARK  111  A    between atoms: _262  and  _265
REMARK  112  A    between atoms: _265  and  _266
REMARK  113  A    between atoms: _269  and  _271
REMARK  114  A    between atoms: _271  and  _272
REMARK  115  A    between atoms: _274  and  _276
REMARK  116  A    between atoms: _276  and  _277
REMARK  117  A    between atoms: _276  and  _279
REMARK  118  A    between atoms: _279  and  _280
REMARK  119  A    between atoms: _280  and  _281
REMARK  120  A    between atoms: _281  and  _282
REMARK  121  A    between atoms: _291  and  _293
REMARK  122  A    between atoms: _293  and  _294
REMARK  123  A    between atoms: _293  and  _296
REMARK  124  A    between atoms: _296  and  _297
REMARK  125  A    between atoms: _297  and  _298
REMARK  126  A    between atoms: _298  and  _299
REMARK  127  A    between atoms: _308  and  _310
REMARK  128  A    between atoms: _310  and  _311
REMARK  129  A    between atoms: _310  and  _313
REMARK  130  A    between atoms: _313  and  _314
REMARK  131  A    between atoms: _317  and  _319
REMARK  132  A    between atoms: _319  and  _320
REMARK  133  A    between atoms: _319  and  _322
REMARK  134  A    between atoms: _322  and  _323
REMARK  135  A    between atoms: _326  and  _328
REMARK  136  A    between atoms: _328  and  _329
REMARK  137  A    between atoms: _328  and  _331
REMARK  138  A    between atoms: _331  and  _332
REMARK  139  A    between atoms: _335  and  _337
REMARK  140  A    between atoms: _337  and  _338
REMARK  141  A    between atoms: _337  and  _340
REMARK  142  A    between atoms: _340  and  _341
REMARK  143  A    between atoms: _344  and  _346
REMARK  144  A    between atoms: _346  and  _347
REMARK  145  A    between atoms: _346  and  _349
REMARK  146  A    between atoms: _349  and  _350
REMARK  147  A    between atoms: _353  and  _355
REMARK  148  A    between atoms: _355  and  _356
REMARK  149  A    between atoms: _358  and  _360
REMARK  150  A    between atoms: _360  and  _361
REMARK  151  A    between atoms: _364  and  _366
REMARK  152  A    between atoms: _366  and  _367
REMARK  153  A    between atoms: _366  and  _369
REMARK  154  A    between atoms: _369  and  _370
REMARK  155  A    between atoms: _373  and  _375
REMARK  156  A    between atoms: _375  and  _376
REMARK  157  A    between atoms: _375  and  _378
REMARK  158  A    between atoms: _378  and  _379
REMARK  159  A    between atoms: _382  and  _384
REMARK  160  A    between atoms: _384  and  _385
REMARK  161  A    between atoms: _384  and  _387
REMARK  162  A    between atoms: _387  and  _388
REMARK  163  A    between atoms: _391  and  _393
REMARK  164  A    between atoms: _393  and  _394
REMARK  165  A    between atoms: _393  and  _396
REMARK  166  A    between atoms: _399  and  _401
REMARK  167  A    between atoms: _401  and  _402
REMARK  168  A    between atoms: _401  and  _404
REMARK  169  A    between atoms: _404  and  _405
REMARK  170  A    between atoms: _408  and  _410
REMARK  171  A    between atoms: _410  and  _411
REMARK  172  A    between atoms: _410  and  _413
REMARK  173  A    between atoms: _413  and  _414
REMARK  174  A    between atoms: _414  and  _415
REMARK  175  A    between atoms: _415  and  _416
REMARK  176  A    between atoms: _416  and  _417
REMARK  177  A    between atoms: _421  and  _423
REMARK  178  A    between atoms: _423  and  _424
REMARK  179  A    between atoms: _423  and  _426
REMARK  180  A    between atoms: _426  and  _427
REMARK  181  A    between atoms: _427  and  _428
REMARK  182  A    between atoms: _430  and  _432
REMARK  183  A    between atoms: _432  and  _433
REMARK  184  A    between atoms: _432  and  _435
REMARK  185  A    between atoms: _435  and  _436
REMARK  186  A    between atoms: _439  and  _441
REMARK  187  A    between atoms: _441  and  _442
REMARK  188  A    between atoms: _444  and  _446
REMARK  189  A    between atoms: _446  and  _447
REMARK  190  A    between atoms: _449  and  _451
REMARK  191  A    between atoms: _451  and  _452
REMARK  192  A    between atoms: _451  and  _454
REMARK  193  A    between atoms: _454  and  _455
REMARK  194  A    between atoms: _458  and  _460
REMARK  195  A    between atoms: _460  and  _461
REMARK  196  A    between atoms: _463  and  _465
REMARK  197  A    between atoms: _465  and  _466
REMARK  198  A    between atoms: _468  and  _470
REMARK  199  A    between atoms: _470  and  _471
REMARK  200  A    between atoms: _470  and  _473
REMARK  201  A    between atoms: _473  and  _474
REMARK  202  A    between atoms: _480  and  _482
REMARK  203  A    between atoms: _482  and  _483
REMARK  204  A    between atoms: _482  and  _485
REMARK  205  A    between atoms: _485  and  _486
REMARK  206  A    between atoms: _489  and  _491
REMARK  207  A    between atoms: _491  and  _492
REMARK  208  A    between atoms: _491  and  _494
REMARK  209  A    between atoms: _497  and  _499
REMARK  210  A    between atoms: _499  and  _500
REMARK  211  A    between atoms: _499  and  _502
REMARK  212  A    between atoms: _502  and  _503
REMARK  213  A    between atoms: _506  and  _508
REMARK  214  A    between atoms: _508  and  _509
REMARK  215  A    between atoms: _508  and  _511
REMARK  216  A    between atoms: _511  and  _512
REMARK  217  A    between atoms: _516  and  _517
REMARK  218  A    between atoms: _522  and  _524
REMARK  219  A    between atoms: _524  and  _525
REMARK  220  A    between atoms: _524  and  _527
REMARK  221  A    between atoms: _530  and  _532
REMARK  222  A    between atoms: _532  and  _533
REMARK  223  A    between atoms: _532  and  _535
REMARK  224  A    between atoms: _535  and  _536
REMARK  225  A    between atoms: _541  and  _543
REMARK  226  A    between atoms: _543  and  _544
REMARK  227  A    between atoms: _543  and  _546
REMARK  228  A    between atoms: _546  and  _547
REMARK  229  A    between atoms: _550  and  _552
REMARK  230  A    between atoms: _552  and  _553
REMARK  231  A    between atoms: _552  and  _555
REMARK  232  A    between atoms: _555  and  _556
REMARK  233  A    between atoms: _559  and  _561
REMARK  234  A    between atoms: _561  and  _562
REMARK  235  A    between atoms: _564  and  _566
REMARK  236  A    between atoms: _566  and  _567
REMARK  237  A    between atoms: _566  and  _569
REMARK  238  A    between atoms: _569  and  _570
REMARK  239  A    between atoms: _570  and  _571
REMARK  240  A    between atoms: _571  and  _572
REMARK                            x       y       z     vdW  Elec       q    Type
REMARK                         _______ _______ _______ _____ _____    ______ ____
ROOT
ATOM      1  O   HOH     1       8.406  35.787   5.642  0.00  0.00    +0.000 OA
ENDROOT
TORSDOF 0
REMARK  Name = ../refined-set-2016/1ebw/1ebw_pocket.pdb
REMARK  240 active torsions:
REMARK  status: ('A' for Active; 'I' for Inactive)
REMARK    1  A    between atoms: _1  and  _3
REMARK    2  A    between atoms: _3  and  _4
REMARK    3  A    between atoms: _3  and  _6
REMARK    4  A    between atoms: _6  and  _7
REMARK    5  A    between atoms: _7  and  _8
REMARK    6  A    between atoms: _8  and  _9
REMARK    7  A    between atoms: _18  and  _20
REMARK    8  A    between atoms: _20  and  _21
REMARK    9  A    between atoms: _20  and  _23
REMARK   10  A    between atoms: _23  and  _24
REMARK   11  A    between atoms: _27  and  _29
REMARK   12  A    between atoms: _29  and  _30
REMARK   13  A    between atoms: _29  and  _32
REMARK   14  A    between atoms: _32  and  _33
REMARK   15  A    between atoms: _36  and  _38
REMARK   16  A    between atoms: _38  and  _39
REMARK   17  A    between atoms: _38  and  _41
REMARK   18  A    between atoms: _41  and  _42
REMARK   19  A    between atoms: _45  and  _47
REMARK   20  A    between atoms: _47  and  _48
REMARK   21  A    between atoms: _47  and  _50
REMARK   22  A    between atoms: _50  and  _51
REMARK   23  A    between atoms: _54  and  _56
REMARK   24  A    between atoms: _56  and  _57
REMARK   25  A    between atoms: _56  and  _59
REMARK   26  A    between atoms: _59  and  _60
REMARK   27  A    between atoms: _63  and  _65
REMARK   28  A    between atoms: _65  and  _66
REMARK   29  A    between atoms: _68  and  _70
REMARK   30  A    between atoms: _70  and  _71
REMARK   31  A    between atoms: _74  and  _76
REMARK   32  A    between atoms: _76  and  _77
REMARK   33  A    between atoms: _76  and  _79
REMARK   34  A    between atoms: _79  and  _80
REMARK   35  A    between atoms: _83  and  _85
REMARK   36  A    between atoms: _85  and  _86
REMARK   37  A    between atoms: _85  and  _88
REMARK   38  A    between atoms: _88  and  _89
REMARK   39  A    between atoms: _92  and  _94
REMARK   40  A    between atoms: _94  and  _95
REMARK   41  A    between atoms: _94  and  _97
REMARK   42  A    between atoms: _97  and  _98
REMARK   43  A    between atoms: _101  and  _103
REMARK   44  A    between atoms: _103  and  _104
REMARK   45  A    between atoms: _103  and  _106
REMARK   46  A    between atoms: _109  and  _111
REMARK   47  A    between atoms: _111  and  _112
REMARK   48  A    between atoms: _111  and  _114
REMARK   49  A    between atoms: _114  and  _115
REMARK   50  A    between atoms: _118  and  _120
REMARK   51  A    between atoms: _120  and  _121
REMARK   52  A    between atoms: _120  and  _123
REMARK   53  A    between atoms: _123  and  _124
REMARK   54  A    between atoms: _124  and  _125
REMARK   55  A    between atoms: _125  and  _126
REMARK   56  A    between atoms: _126  and  _127
REMARK   57  A    between atoms: _131  and  _133
REMARK   58  A    between atoms: _133  and  _134
REMARK   59  A    between atoms: _133  and  _136
REMARK   60  A    between atoms: _136  and  _137
REMARK   61  A    between atoms: _137  and  _138
REMARK   62  A    between atoms: _140  and  _142
REMARK   63  A    between atoms: _142  and  _143
REMARK   64  A    between atoms: _142  and  _145
REMARK   65  A    between atoms: _145  and  _146
REMARK   66  A    between atoms: _149  and  _151
REMARK   67  A    between atoms: _151  and  _152
REMARK   68  A    between atoms: _154  and  _156
REMARK   69  A    between atoms: _156  and  _157
REMARK   70  A    between atoms: _159  and  _161
REMARK   71  A    between atoms: _161  and  _162
REMARK   72  A    between atoms: _161  and  _164
REMARK   73  A    between atoms: _164  and  _165
REMARK   74  A    between atoms: _168  and  _170
REMARK   75  A    between atoms: _170  and  _171
REMARK   76  A    between atoms: _173  and  _175
REMARK   77  A    between atoms: _175  and  _176
REMARK   78  A    between atoms: _178  and  _180
REMARK   79  A    between atoms: _180  and  _181
REMARK   80  A    between atoms: _180  and  _183
REMARK   81  A    between atoms: _183  and  _184
REMARK   82  A    between atoms: _190  and  _192
REMARK   83  A    between atoms: _192  and  _193
REMARK   84  A    between atoms: _192  and  _195
REMARK   85  A    between atoms: _195  and  _196
REMARK   86  A    between atoms: _199  and  _201
REMARK   87  A    between atoms: _201  and  _202
REMARK   88  A    between atoms: _201  and  _204
REMARK   89  A    between atoms: _207  and  _209
REMARK   90  A    between atoms: _209  and  _210
REMARK   91  A    between atoms: _209  and  _212
REMARK   92  A    between atoms: _212  and  _213
REMARK   93  A    between atoms: _216  and  _218
REMARK   94  A    between atoms: _218  and  _219
REMARK   95  A    between atoms: _218  and  _221
REMARK   96  A    between atoms: _221  and  _222
REMARK   97  A    between atoms: _226  and  _227
REMARK   98  A    between atoms: _232  and  _234
REMARK   99  A    between atoms: _234  and  _235
REMARK  100  A    between atoms: _234  and  _237
REMARK  101  A    between atoms: _240  and  _242
REMARK  102  A    between atoms: _242  and  _243
REMARK  103  A    between atoms: _242  and  _245
REMARK  104  A    between atoms: _245  and  _246
REMARK  105  A    between atoms: _251  and  _253
REMARK  106  A    between atoms: _253  and  _254
REMARK  107  A    between atoms: _253  and  _256
REMARK  108  A    between atoms: _256  and  _257
REMARK  109  A    between atoms: _260  and  _262
REMARK  110  A    between atoms: _262  and  _263
REMARK  111  A    between atoms: _262  and  _265
REMARK  112  A    between atoms: _265  and  _266
REMARK  113  A    between atoms: _269  and  _271
REMARK  114  A    between atoms: _271  and  _272
REMARK  115  A    between atoms: _274  and  _276
REMARK  116  A    between atoms: _276  and  _277
REMARK  117  A    between atoms: _276  and  _279
REMARK  118  A    between atoms: _279  and  _280
REMARK  119  A    between atoms: _280  and  _281
REMARK  120  A    between atoms: _281  and  _282
REMARK  121  A    between atoms: _291  and  _293
REMARK  122  A    between atoms: _293  and  _294
REMARK  123  A    between atoms: _293  and  _296
REMARK  124  A    between atoms: _296  and  _297
REMARK  125  A    between atoms: _297  and  _298
REMARK  126  A    between atoms: _298  and  _299
REMARK  127  A    between atoms: _308  and  _310
REMARK  128  A    between atoms: _310  and  _311
REMARK  129  A    between atoms: _310  and  _313
REMARK  130  A    between atoms: _313  and  _314
REMARK  131  A    between atoms: _317  and  _319
REMARK  132  A    between atoms: _319  and  _320
REMARK  133  A    between atoms: _319  and  _322
REMARK  134  A    between atoms: _322  and  _323
REMARK  135  A    between atoms: _326  and  _328
REMARK  136  A    between atoms: _328  and  _329
REMARK  137  A    between atoms: _328  and  _331
REMARK  138  A    between atoms: _331  and  _332
REMARK  139  A    between atoms: _335  and  _337
REMARK  140  A    between atoms: _337  and  _338
REMARK  141  A    between atoms: _337  and  _340
REMARK  142  A    between atoms: _340  and  _341
REMARK  143  A    between atoms: _344  and  _346
REMARK  144  A    between atoms: _346  and  _347
REMARK  145  A    between atoms: _346  and  _349
REMARK  146  A    between atoms: _349  and  _350
REMARK  147  A    between atoms: _353  and  _355
REMARK  148  A    between atoms: _355  and  _356
REMARK  149  A    between atoms: _358  and  _360
REMARK  150  A    between atoms: _360  and  _361
REMARK  151  A    between atoms: _364  and  _366
REMARK  152  A    between atoms: _366  and  _367
REMARK  153  A    between atoms: _366  and  _369
REMARK  154  A    between atoms: _369  and  _370
REMARK  155  A    between atoms: _373  and  _375
REMARK  156  A    between atoms: _375  and  _376
REMARK  157  A    between atoms: _375  and  _378
REMARK  158  A    between atoms: _378  and  _379
REMARK  159  A    between atoms: _382  and  _384
REMARK  160  A    between atoms: _384  and  _385
REMARK  161  A    between atoms: _384  and  _387
REMARK  162  A    between atoms: _387  and  _388
REMARK  163  A    between atoms: _391  and  _393
REMARK  164  A    between atoms: _393  and  _394
REMARK  165  A    between atoms: _393  and  _396
REMARK  166  A    between atoms: _399  and  _401
REMARK  167  A    between atoms: _401  and  _402
REMARK  168  A    between atoms: _401  and  _404
REMARK  169  A    between atoms: _404  and  _405
REMARK  170  A    between atoms: _408  and  _410
REMARK  171  A    between atoms: _410  and  _411
REMARK  172  A    between atoms: _410  and  _413
REMARK  173  A    between atoms: _413  and  _414
REMARK  174  A    between atoms: _414  and  _415
REMARK  175  A    between atoms: _415  and  _416
REMARK  176  A    between atoms: _416  and  _417
REMARK  177  A    between atoms: _421  and  _423
REMARK  178  A    between atoms: _423  and  _424
REMARK  179  A    between atoms: _423  and  _426
REMARK  180  A    between atoms: _426  and  _427
REMARK  181  A    between atoms: _427  and  _428
REMARK  182  A    between atoms: _430  and  _432
REMARK  183  A    between atoms: _432  and  _433
REMARK  184  A    between atoms: _432  and  _435
REMARK  185  A    between atoms: _435  and  _436
REMARK  186  A    between atoms: _439  and  _441
REMARK  187  A    between atoms: _441  and  _442
REMARK  188  A    between atoms: _444  and  _446
REMARK  189  A    between atoms: _446  and  _447
REMARK  190  A    between atoms: _449  and  _451
REMARK  191  A    between atoms: _451  and  _452
REMARK  192  A    between atoms: _451  and  _454
REMARK  193  A    between atoms: _454  and  _455
REMARK  194  A    between atoms: _458  and  _460
REMARK  195  A    between atoms: _460  and  _461
REMARK  196  A    between atoms: _463  and  _465
REMARK  197  A    between atoms: _465  and  _466
REMARK  198  A    between atoms: _468  and  _470
REMARK  199  A    between atoms: _470  and  _471
REMARK  200  A    between atoms: _470  and  _473
REMARK  201  A    between atoms: _473  and  _474
REMARK  202  A    between atoms: _480  and  _482
REMARK  203  A    between atoms: _482  and  _483
REMARK  204  A    between atoms: _482  and  _485
REMARK  205  A    between atoms: _485  and  _486
REMARK  206  A    between atoms: _489  and  _491
REMARK  207  A    between atoms: _491  and  _492
REMARK  208  A    between atoms: _491  and  _494
REMARK  209  A    between atoms: _497  and  _499
REMARK  210  A    between atoms: _499  and  _500
REMARK  211  A    between atoms: _499  and  _502
REMARK  212  A    between atoms: _502  and  _503
REMARK  213  A    between atoms: _506  and  _508
REMARK  214  A    between atoms: _508  and  _509
REMARK  215  A    between atoms: _508  and  _511
REMARK  216  A    between atoms: _511  and  _512
REMARK  217  A    between atoms: _516  and  _517
REMARK  218  A    between atoms: _522  and  _524
REMARK  219  A    between atoms: _524  and  _525
REMARK  220  A    between atoms: _524  and  _527
REMARK  221  A    between atoms: _530  and  _532
REMARK  222  A    between atoms: _532  and  _533
REMARK  223  A    between atoms: _532  and  _535
REMARK  224  A    between atoms: _535  and  _536
REMARK  225  A    between atoms: _541  and  _543
REMARK  226  A    between atoms: _543  and  _544
REMARK  227  A    between atoms: _543  and  _546
REMARK  228  A    between atoms: _546  and  _547
REMARK  229  A    between atoms: _550  and  _552
REMARK  230  A    between atoms: _552  and  _553
REMARK  231  A    between atoms: _552  and  _555
REMARK  232  A    between atoms: _555  and  _556
REMARK  233  A    between atoms: _559  and  _561
REMARK  234  A    between atoms: _561  and  _562
REMARK  235  A    between atoms: _564  and  _566
REMARK  236  A    between atoms: _566  and  _567
REMARK  237  A    between atoms: _566  and  _569
REMARK  238  A    between atoms: _569  and  _570
REMARK  239  A    between atoms: _570  and  _571
REMARK  240  A    between atoms: _571  and  _572
REMARK                            x       y       z     vdW  Elec       q    Type
REMARK                         _______ _______ _______ _____ _____    ______ ____
ROOT
ATOM      1  O   HOH     1       1.168  27.038   8.285  0.00  0.00    +0.000 OA
ENDROOT
TORSDOF 0
REMARK  Name = ../refined-set-2016/1ebw/1ebw_pocket.pdb
REMARK  240 active torsions:
REMARK  status: ('A' for Active; 'I' for Inactive)
REMARK    1  A    between atoms: _1  and  _3
REMARK    2  A    between atoms: _3  and  _4
REMARK    3  A    between atoms: _3  and  _6
REMARK    4  A    between atoms: _6  and  _7
REMARK    5  A    between atoms: _7  and  _8
REMARK    6  A    between atoms: _8  and  _9
REMARK    7  A    between atoms: _18  and  _20
REMARK    8  A    between atoms: _20  and  _21
REMARK    9  A    between atoms: _20  and  _23
REMARK   10  A    between atoms: _23  and  _24
REMARK   11  A    between atoms: _27  and  _29
REMARK   12  A    between atoms: _29  and  _30
REMARK   13  A    between atoms: _29  and  _32
REMARK   14  A    between atoms: _32  and  _33
REMARK   15  A    between atoms: _36  and  _38
REMARK   16  A    between atoms: _38  and  _39
REMARK   17  A    between atoms: _38  and  _41
REMARK   18  A    between atoms: _41  and  _42
REMARK   19  A    between atoms: _45  and  _47
REMARK   20  A    between atoms: _47  and  _48
REMARK   21  A    between atoms: _47  and  _50
REMARK   22  A    between atoms: _50  and  _51
REMARK   23  A    between atoms: _54  and  _56
REMARK   24  A    between atoms: _56  and  _57
REMARK   25  A    between atoms: _56  and  _59
REMARK   26  A    between atoms: _59  and  _60
REMARK   27  A    between atoms: _63  and  _65
REMARK   28  A    between atoms: _65  and  _66
REMARK   29  A    between atoms: _68  and  _70
REMARK   30  A    between atoms: _70  and  _71
REMARK   31  A    between atoms: _74  and  _76
REMARK   32  A    between atoms: _76  and  _77
REMARK   33  A    between atoms: _76  and  _79
REMARK   34  A    between atoms: _79  and  _80
REMARK   35  A    between atoms: _83  and  _85
REMARK   36  A    between atoms: _85  and  _86
REMARK   37  A    between atoms: _85  and  _88
REMARK   38  A    between atoms: _88  and  _89
REMARK   39  A    between atoms: _92  and  _94
REMARK   40  A    between atoms: _94  and  _95
REMARK   41  A    between atoms: _94  and  _97
REMARK   42  A    between atoms: _97  and  _98
REMARK   43  A    between atoms: _101  and  _103
REMARK   44  A    between atoms: _103  and  _104
REMARK   45  A    between atoms: _103  and  _106
REMARK   46  A    between atoms: _109  and  _111
REMARK   47  A    between atoms: _111  and  _112
REMARK   48  A    between atoms: _111  and  _114
REMARK   49  A    between atoms: _114  and  _115
REMARK   50  A    between atoms: _118  and  _120
REMARK   51  A    between atoms: _120  and  _121
REMARK   52  A    between atoms: _120  and  _123
REMARK   53  A    between atoms: _123  and  _124
REMARK   54  A    between atoms: _124  and  _125
REMARK   55  A    between atoms: _125  and  _126
REMARK   56  A    between atoms: _126  and  _127
REMARK   57  A    between atoms: _131  and  _133
REMARK   58  A    between atoms: _133  and  _134
REMARK   59  A    between atoms: _133  and  _136
REMARK   60  A    between atoms: _136  and  _137
REMARK   61  A    between atoms: _137  and  _138
REMARK   62  A    between atoms: _140  and  _142
REMARK   63  A    between atoms: _142  and  _143
REMARK   64  A    between atoms: _142  and  _145
REMARK   65  A    between atoms: _145  and  _146
REMARK   66  A    between atoms: _149  and  _151
REMARK   67  A    between atoms: _151  and  _152
REMARK   68  A    between atoms: _154  and  _156
REMARK   69  A    between atoms: _156  and  _157
REMARK   70  A    between atoms: _159  and  _161
REMARK   71  A    between atoms: _161  and  _162
REMARK   72  A    between atoms: _161  and  _164
REMARK   73  A    between atoms: _164  and  _165
REMARK   74  A    between atoms: _168  and  _170
REMARK   75  A    between atoms: _170  and  _171
REMARK   76  A    between atoms: _173  and  _175
REMARK   77  A    between atoms: _175  and  _176
REMARK   78  A    between atoms: _178  and  _180
REMARK   79  A    between atoms: _180  and  _181
REMARK   80  A    between atoms: _180  and  _183
REMARK   81  A    between atoms: _183  and  _184
REMARK   82  A    between atoms: _190  and  _192
REMARK   83  A    between atoms: _192  and  _193
REMARK   84  A    between atoms: _192  and  _195
REMARK   85  A    between atoms: _195  and  _196
REMARK   86  A    between atoms: _199  and  _201
REMARK   87  A    between atoms: _201  and  _202
REMARK   88  A    between atoms: _201  and  _204
REMARK   89  A    between atoms: _207  and  _209
REMARK   90  A    between atoms: _209  and  _210
REMARK   91  A    between atoms: _209  and  _212
REMARK   92  A    between atoms: _212  and  _213
REMARK   93  A    between atoms: _216  and  _218
REMARK   94  A    between atoms: _218  and  _219
REMARK   95  A    between atoms: _218  and  _221
REMARK   96  A    between atoms: _221  and  _222
REMARK   97  A    between atoms: _226  and  _227
REMARK   98  A    between atoms: _232  and  _234
REMARK   99  A    between atoms: _234  and  _235
REMARK  100  A    between atoms: _234  and  _237
REMARK  101  A    between atoms: _240  and  _242
REMARK  102  A    between atoms: _242  and  _243
REMARK  103  A    between atoms: _242  and  _245
REMARK  104  A    between atoms: _245  and  _246
REMARK  105  A    between atoms: _251  and  _253
REMARK  106  A    between atoms: _253  and  _254
REMARK  107  A    between atoms: _253  and  _256
REMARK  108  A    between atoms: _256  and  _257
REMARK  109  A    between atoms: _260  and  _262
REMARK  110  A    between atoms: _262  and  _263
REMARK  111  A    between atoms: _262  and  _265
REMARK  112  A    between atoms: _265  and  _266
REMARK  113  A    between atoms: _269  and  _271
REMARK  114  A    between atoms: _271  and  _272
REMARK  115  A    between atoms: _274  and  _276
REMARK  116  A    between atoms: _276  and  _277
REMARK  117  A    between atoms: _276  and  _279
REMARK  118  A    between atoms: _279  and  _280
REMARK  119  A    between atoms: _280  and  _281
REMARK  120  A    between atoms: _281  and  _282
REMARK  121  A    between atoms: _291  and  _293
REMARK  122  A    between atoms: _293  and  _294
REMARK  123  A    between atoms: _293  and  _296
REMARK  124  A    between atoms: _296  and  _297
REMARK  125  A    between atoms: _297  and  _298
REMARK  126  A    between atoms: _298  and  _299
REMARK  127  A    between atoms: _308  and  _310
REMARK  128  A    between atoms: _310  and  _311
REMARK  129  A    between atoms: _310  and  _313
REMARK  130  A    between atoms: _313  and  _314
REMARK  131  A    between atoms: _317  and  _319
REMARK  132  A    between atoms: _319  and  _320
REMARK  133  A    between atoms: _319  and  _322
REMARK  134  A    between atoms: _322  and  _323
REMARK  135  A    between atoms: _326  and  _328
REMARK  136  A    between atoms: _328  and  _329
REMARK  137  A    between atoms: _328  and  _331
REMARK  138  A    between atoms: _331  and  _332
REMARK  139  A    between atoms: _335  and  _337
REMARK  140  A    between atoms: _337  and  _338
REMARK  141  A    between atoms: _337  and  _340
REMARK  142  A    between atoms: _340  and  _341
REMARK  143  A    between atoms: _344  and  _346
REMARK  144  A    between atoms: _346  and  _347
REMARK  145  A    between atoms: _346  and  _349
REMARK  146  A    between atoms: _349  and  _350
REMARK  147  A    between atoms: _353  and  _355
REMARK  148  A    between atoms: _355  and  _356
REMARK  149  A    between atoms: _358  and  _360
REMARK  150  A    between atoms: _360  and  _361
REMARK  151  A    between atoms: _364  and  _366
REMARK  152  A    between atoms: _366  and  _367
REMARK  153  A    between atoms: _366  and  _369
REMARK  154  A    between atoms: _369  and  _370
REMARK  155  A    between atoms: _373  and  _375
REMARK  156  A    between atoms: _375  and  _376
REMARK  157  A    between atoms: _375  and  _378
REMARK  158  A    between atoms: _378  and  _379
REMARK  159  A    between atoms: _382  and  _384
REMARK  160  A    between atoms: _384  and  _385
REMARK  161  A    between atoms: _384  and  _387
REMARK  162  A    between atoms: _387  and  _388
REMARK  163  A    between atoms: _391  and  _393
REMARK  164  A    between atoms: _393  and  _394
REMARK  165  A    between atoms: _393  and  _396
REMARK  166  A    between atoms: _399  and  _401
REMARK  167  A    between atoms: _401  and  _402
REMARK  168  A    between atoms: _401  and  _404
REMARK  169  A    between atoms: _404  and  _405
REMARK  170  A    between atoms: _408  and  _410
REMARK  171  A    between atoms: _410  and  _411
REMARK  172  A    between atoms: _410  and  _413
REMARK  173  A    between atoms: _413  and  _414
REMARK  174  A    between atoms: _414  and  _415
REMARK  175  A    between atoms: _415  and  _416
REMARK  176  A    between atoms: _416  and  _417
REMARK  177  A    between atoms: _421  and  _423
REMARK  178  A    between atoms: _423  and  _424
REMARK  179  A    between atoms: _423  and  _426
REMARK  180  A    between atoms: _426  and  _427
REMARK  181  A    between atoms: _427  and  _428
REMARK  182  A    between atoms: _430  and  _432
REMARK  183  A    between atoms: _432  and  _433
REMARK  184  A    between atoms: _432  and  _435
REMARK  185  A    between atoms: _435  and  _436
REMARK  186  A    between atoms: _439  and  _441
REMARK  187  A    between atoms: _441  and  _442
REMARK  188  A    between atoms: _444  and  _446
REMARK  189  A    between atoms: _446  and  _447
REMARK  190  A    between atoms: _449  and  _451
REMARK  191  A    between atoms: _451  and  _452
REMARK  192  A    between atoms: _451  and  _454
REMARK  193  A    between atoms: _454  and  _455
REMARK  194  A    between atoms: _458  and  _460
REMARK  195  A    between atoms: _460  and  _461
REMARK  196  A    between atoms: _463  and  _465
REMARK  197  A    between atoms: _465  and  _466
REMARK  198  A    between atoms: _468  and  _470
REMARK  199  A    between atoms: _470  and  _471
REMARK  200  A    between atoms: _470  and  _473
REMARK  201  A    between atoms: _473  and  _474
REMARK  202  A    between atoms: _480  and  _482
REMARK  203  A    between atoms: _482  and  _483
REMARK  204  A    between atoms: _482  and  _485
REMARK  205  A    between atoms: _485  and  _486
REMARK  206  A    between atoms: _489  and  _491
REMARK  207  A    between atoms: _491  and  _492
REMARK  208  A    between atoms: _491  and  _494
REMARK  209  A    between atoms: _497  and  _499
REMARK  210  A    between atoms: _499  and  _500
REMARK  211  A    between atoms: _499  and  _502
REMARK  212  A    between atoms: _502  and  _503
REMARK  213  A    between atoms: _506  and  _508
REMARK  214  A    between atoms: _508  and  _509
REMARK  215  A    between atoms: _508  and  _511
REMARK  216  A    between atoms: _511  and  _512
REMARK  217  A    between atoms: _516  and  _517
REMARK  218  A    between atoms: _522  and  _524
REMARK  219  A    between atoms: _524  and  _525
REMARK  220  A    between atoms: _524  and  _527
REMARK  221  A    between atoms: _530  and  _532
REMARK  222  A    between atoms: _532  and  _533
REMARK  223  A    between atoms: _532  and  _535
REMARK  224  A    between atoms: _535  and  _536
REMARK  225  A    between atoms: _541  and  _543
REMARK  226  A    between atoms: _543  and  _544
REMARK  227  A    between atoms: _543  and  _546
REMARK  228  A    between atoms: _546  and  _547
REMARK  229  A    between atoms: _550  and  _552
REMARK  230  A    between atoms: _552  and  _553
REMARK  231  A    between atoms: _552  and  _555
REMARK  232  A    between atoms: _555  and  _556
REMARK  233  A    between atoms: _559  and  _561
REMARK  234  A    between atoms: _561  and  _562
REMARK  235  A    between atoms: _564  and  _566
REMARK  236  A    between atoms: _566  and  _567
REMARK  237  A    between atoms: _566  and  _569
REMARK  238  A    between atoms: _569  and  _570
REMARK  239  A    between atoms: _570  and  _571
REMARK  240  A    between atoms: _571  and  _572
REMARK                            x       y       z     vdW  Elec       q    Type
REMARK                         _______ _______ _______ _____ _____    ______ ____
ROOT
ATOM      1  O   HOH     1       4.061  30.609   5.857  0.00  0.00    +0.000 OA
ENDROOT
TORSDOF 0
REMARK  Name = ../refined-set-2016/1ebw/1ebw_pocket.pdb
REMARK  240 active torsions:
REMARK  status: ('A' for Active; 'I' for Inactive)
REMARK    1  A    between atoms: _1  and  _3
REMARK    2  A    between atoms: _3  and  _4
REMARK    3  A    between atoms: _3  and  _6
REMARK    4  A    between atoms: _6  and  _7
REMARK    5  A    between atoms: _7  and  _8
REMARK    6  A    between atoms: _8  and  _9
REMARK    7  A    between atoms: _18  and  _20
REMARK    8  A    between atoms: _20  and  _21
REMARK    9  A    between atoms: _20  and  _23
REMARK   10  A    between atoms: _23  and  _24
REMARK   11  A    between atoms: _27  and  _29
REMARK   12  A    between atoms: _29  and  _30
REMARK   13  A    between atoms: _29  and  _32
REMARK   14  A    between atoms: _32  and  _33
REMARK   15  A    between atoms: _36  and  _38
REMARK   16  A    between atoms: _38  and  _39
REMARK   17  A    between atoms: _38  and  _41
REMARK   18  A    between atoms: _41  and  _42
REMARK   19  A    between atoms: _45  and  _47
REMARK   20  A    between atoms: _47  and  _48
REMARK   21  A    between atoms: _47  and  _50
REMARK   22  A    between atoms: _50  and  _51
REMARK   23  A    between atoms: _54  and  _56
REMARK   24  A    between atoms: _56  and  _57
REMARK   25  A    between atoms: _56  and  _59
REMARK   26  A    between atoms: _59  and  _60
REMARK   27  A    between atoms: _63  and  _65
REMARK   28  A    between atoms: _65  and  _66
REMARK   29  A    between atoms: _68  and  _70
REMARK   30  A    between atoms: _70  and  _71
REMARK   31  A    between atoms: _74  and  _76
REMARK   32  A    between atoms: _76  and  _77
REMARK   33  A    between atoms: _76  and  _79
REMARK   34  A    between atoms: _79  and  _80
REMARK   35  A    between atoms: _83  and  _85
REMARK   36  A    between atoms: _85  and  _86
REMARK   37  A    between atoms: _85  and  _88
REMARK   38  A    between atoms: _88  and  _89
REMARK   39  A    between atoms: _92  and  _94
REMARK   40  A    between atoms: _94  and  _95
REMARK   41  A    between atoms: _94  and  _97
REMARK   42  A    between atoms: _97  and  _98
REMARK   43  A    between atoms: _101  and  _103
REMARK   44  A    between atoms: _103  and  _104
REMARK   45  A    between atoms: _103  and  _106
REMARK   46  A    between atoms: _109  and  _111
REMARK   47  A    between atoms: _111  and  _112
REMARK   48  A    between atoms: _111  and  _114
REMARK   49  A    between atoms: _114  and  _115
REMARK   50  A    between atoms: _118  and  _120
REMARK   51  A    between atoms: _120  and  _121
REMARK   52  A    between atoms: _120  and  _123
REMARK   53  A    between atoms: _123  and  _124
REMARK   54  A    between atoms: _124  and  _125
REMARK   55  A    between atoms: _125  and  _126
REMARK   56  A    between atoms: _126  and  _127
REMARK   57  A    between atoms: _131  and  _133
REMARK   58  A    between atoms: _133  and  _134
REMARK   59  A    between atoms: _133  and  _136
REMARK   60  A    between atoms: _136  and  _137
REMARK   61  A    between atoms: _137  and  _138
REMARK   62  A    between atoms: _140  and  _142
REMARK   63  A    between atoms: _142  and  _143
REMARK   64  A    between atoms: _142  and  _145
REMARK   65  A    between atoms: _145  and  _146
REMARK   66  A    between atoms: _149  and  _151
REMARK   67  A    between atoms: _151  and  _152
REMARK   68  A    between atoms: _154  and  _156
REMARK   69  A    between atoms: _156  and  _157
REMARK   70  A    between atoms: _159  and  _161
REMARK   71  A    between atoms: _161  and  _162
REMARK   72  A    between atoms: _161  and  _164
REMARK   73  A    between atoms: _164  and  _165
REMARK   74  A    between atoms: _168  and  _170
REMARK   75  A    between atoms: _170  and  _171
REMARK   76  A    between atoms: _173  and  _175
REMARK   77  A    between atoms: _175  and  _176
REMARK   78  A    between atoms: _178  and  _180
REMARK   79  A    between atoms: _180  and  _181
REMARK   80  A    between atoms: _180  and  _183
REMARK   81  A    between atoms: _183  and  _184
REMARK   82  A    between atoms: _190  and  _192
REMARK   83  A    between atoms: _192  and  _193
REMARK   84  A    between atoms: _192  and  _195
REMARK   85  A    between atoms: _195  and  _196
REMARK   86  A    between atoms: _199  and  _201
REMARK   87  A    between atoms: _201  and  _202
REMARK   88  A    between atoms: _201  and  _204
REMARK   89  A    between atoms: _207  and  _209
REMARK   90  A    between atoms: _209  and  _210
REMARK   91  A    between atoms: _209  and  _212
REMARK   92  A    between atoms: _212  and  _213
REMARK   93  A    between atoms: _216  and  _218
REMARK   94  A    between atoms: _218  and  _219
REMARK   95  A    between atoms: _218  and  _221
REMARK   96  A    between atoms: _221  and  _222
REMARK   97  A    between atoms: _226  and  _227
REMARK   98  A    between atoms: _232  and  _234
REMARK   99  A    between atoms: _234  and  _235
REMARK  100  A    between atoms: _234  and  _237
REMARK  101  A    between atoms: _240  and  _242
REMARK  102  A    between atoms: _242  and  _243
REMARK  103  A    between atoms: _242  and  _245
REMARK  104  A    between atoms: _245  and  _246
REMARK  105  A    between atoms: _251  and  _253
REMARK  106  A    between atoms: _253  and  _254
REMARK  107  A    between atoms: _253  and  _256
REMARK  108  A    between atoms: _256  and  _257
REMARK  109  A    between atoms: _260  and  _262
REMARK  110  A    between atoms: _262  and  _263
REMARK  111  A    between atoms: _262  and  _265
REMARK  112  A    between atoms: _265  and  _266
REMARK  113  A    between atoms: _269  and  _271
REMARK  114  A    between atoms: _271  and  _272
REMARK  115  A    between atoms: _274  and  _276
REMARK  116  A    between atoms: _276  and  _277
REMARK  117  A    between atoms: _276  and  _279
REMARK  118  A    between atoms: _279  and  _280
REMARK  119  A    between atoms: _280  and  _281
REMARK  120  A    between atoms: _281  and  _282
REMARK  121  A    between atoms: _291  and  _293
REMARK  122  A    between atoms: _293  and  _294
REMARK  123  A    between atoms: _293  and  _296
REMARK  124  A    between atoms: _296  and  _297
REMARK  125  A    between atoms: _297  and  _298
REMARK  126  A    between atoms: _298  and  _299
REMARK  127  A    between atoms: _308  and  _310
REMARK  128  A    between atoms: _310  and  _311
REMARK  129  A    between atoms: _310  and  _313
REMARK  130  A    between atoms: _313  and  _314
REMARK  131  A    between atoms: _317  and  _319
REMARK  132  A    between atoms: _319  and  _320
REMARK  133  A    between atoms: _319  and  _322
REMARK  134  A    between atoms: _322  and  _323
REMARK  135  A    between atoms: _326  and  _328
REMARK  136  A    between atoms: _328  and  _329
REMARK  137  A    between atoms: _328  and  _331
REMARK  138  A    between atoms: _331  and  _332
REMARK  139  A    between atoms: _335  and  _337
REMARK  140  A    between atoms: _337  and  _338
REMARK  141  A    between atoms: _337  and  _340
REMARK  142  A    between atoms: _340  and  _341
REMARK  143  A    between atoms: _344  and  _346
REMARK  144  A    between atoms: _346  and  _347
REMARK  145  A    between atoms: _346  and  _349
REMARK  146  A    between atoms: _349  and  _350
REMARK  147  A    between atoms: _353  and  _355
REMARK  148  A    between atoms: _355  and  _356
REMARK  149  A    between atoms: _358  and  _360
REMARK  150  A    between atoms: _360  and  _361
REMARK  151  A    between atoms: _364  and  _366
REMARK  152  A    between atoms: _366  and  _367
REMARK  153  A    between atoms: _366  and  _369
REMARK  154  A    between atoms: _369  and  _370
REMARK  155  A    between atoms: _373  and  _375
REMARK  156  A    between atoms: _375  and  _376
REMARK  157  A    between atoms: _375  and  _378
REMARK  158  A    between atoms: _378  and  _379
REMARK  159  A    between atoms: _382  and  _384
REMARK  160  A    between atoms: _384  and  _385
REMARK  161  A    between atoms: _384  and  _387
REMARK  162  A    between atoms: _387  and  _388
REMARK  163  A    between atoms: _391  and  _393
REMARK  164  A    between atoms: _393  and  _394
REMARK  165  A    between atoms: _393  and  _396
REMARK  166  A    between atoms: _399  and  _401
REMARK  167  A    between atoms: _401  and  _402
REMARK  168  A    between atoms: _401  and  _404
REMARK  169  A    between atoms: _404  and  _405
REMARK  170  A    between atoms: _408  and  _410
REMARK  171  A    between atoms: _410  and  _411
REMARK  172  A    between atoms: _410  and  _413
REMARK  173  A    between atoms: _413  and  _414
REMARK  174  A    between atoms: _414  and  _415
REMARK  175  A    between atoms: _415  and  _416
REMARK  176  A    between atoms: _416  and  _417
REMARK  177  A    between atoms: _421  and  _423
REMARK  178  A    between atoms: _423  and  _424
REMARK  179  A    between atoms: _423  and  _426
REMARK  180  A    between atoms: _426  and  _427
REMARK  181  A    between atoms: _427  and  _428
REMARK  182  A    between atoms: _430  and  _432
REMARK  183  A    between atoms: _432  and  _433
REMARK  184  A    between atoms: _432  and  _435
REMARK  185  A    between atoms: _435  and  _436
REMARK  186  A    between atoms: _439  and  _441
REMARK  187  A    between atoms: _441  and  _442
REMARK  188  A    between atoms: _444  and  _446
REMARK  189  A    between atoms: _446  and  _447
REMARK  190  A    between atoms: _449  and  _451
REMARK  191  A    between atoms: _451  and  _452
REMARK  192  A    between atoms: _451  and  _454
REMARK  193  A    between atoms: _454  and  _455
REMARK  194  A    between atoms: _458  and  _460
REMARK  195  A    between atoms: _460  and  _461
REMARK  196  A    between atoms: _463  and  _465
REMARK  197  A    between atoms: _465  and  _466
REMARK  198  A    between atoms: _468  and  _470
REMARK  199  A    between atoms: _470  and  _471
REMARK  200  A    between atoms: _470  and  _473
REMARK  201  A    between atoms: _473  and  _474
REMARK  202  A    between atoms: _480  and  _482
REMARK  203  A    between atoms: _482  and  _483
REMARK  204  A    between atoms: _482  and  _485
REMARK  205  A    between atoms: _485  and  _486
REMARK  206  A    between atoms: _489  and  _491
REMARK  207  A    between atoms: _491  and  _492
REMARK  208  A    between atoms: _491  and  _494
REMARK  209  A    between atoms: _497  and  _499
REMARK  210  A    between atoms: _499  and  _500
REMARK  211  A    between atoms: _499  and  _502
REMARK  212  A    between atoms: _502  and  _503
REMARK  213  A    between atoms: _506  and  _508
REMARK  214  A    between atoms: _508  and  _509
REMARK  215  A    between atoms: _508  and  _511
REMARK  216  A    between atoms: _511  and  _512
REMARK  217  A    between atoms: _516  and  _517
REMARK  218  A    between atoms: _522  and  _524
REMARK  219  A    between atoms: _524  and  _525
REMARK  220  A    between atoms: _524  and  _527
REMARK  221  A    between atoms: _530  and  _532
REMARK  222  A    between atoms: _532  and  _533
REMARK  223  A    between atoms: _532  and  _535
REMARK  224  A    between atoms: _535  and  _536
REMARK  225  A    between atoms: _541  and  _543
REMARK  226  A    between atoms: _543  and  _544
REMARK  227  A    between atoms: _543  and  _546
REMARK  228  A    between atoms: _546  and  _547
REMARK  229  A    between atoms: _550  and  _552
REMARK  230  A    between atoms: _552  and  _553
REMARK  231  A    between atoms: _552  and  _555
REMARK  232  A    between atoms: _555  and  _556
REMARK  233  A    between atoms: _559  and  _561
REMARK  234  A    between atoms: _561  and  _562
REMARK  235  A    between atoms: _564  and  _566
REMARK  236  A    between atoms: _566  and  _567
REMARK  237  A    between atoms: _566  and  _569
REMARK  238  A    between atoms: _569  and  _570
REMARK  239  A    between atoms: _570  and  _571
REMARK  240  A    between atoms: _571  and  _572
REMARK                            x       y       z     vdW  Elec       q    Type
REMARK                         _______ _______ _______ _____ _____    ______ ____
ROOT
ATOM      1  O   HOH     1       7.668  16.270   3.671  0.00  0.00    +0.000 OA
ENDROOT
TORSDOF 0
REMARK  Name = ../refined-set-2016/1ebw/1ebw_pocket.pdb
REMARK  240 active torsions:
REMARK  status: ('A' for Active; 'I' for Inactive)
REMARK    1  A    between atoms: _1  and  _3
REMARK    2  A    between atoms: _3  and  _4
REMARK    3  A    between atoms: _3  and  _6
REMARK    4  A    between atoms: _6  and  _7
REMARK    5  A    between atoms: _7  and  _8
REMARK    6  A    between atoms: _8  and  _9
REMARK    7  A    between atoms: _18  and  _20
REMARK    8  A    between atoms: _20  and  _21
REMARK    9  A    between atoms: _20  and  _23
REMARK   10  A    between atoms: _23  and  _24
REMARK   11  A    between atoms: _27  and  _29
REMARK   12  A    between atoms: _29  and  _30
REMARK   13  A    between atoms: _29  and  _32
REMARK   14  A    between atoms: _32  and  _33
REMARK   15  A    between atoms: _36  and  _38
REMARK   16  A    between atoms: _38  and  _39
REMARK   17  A    between atoms: _38  and  _41
REMARK   18  A    between atoms: _41  and  _42
REMARK   19  A    between atoms: _45  and  _47
REMARK   20  A    between atoms: _47  and  _48
REMARK   21  A    between atoms: _47  and  _50
REMARK   22  A    between atoms: _50  and  _51
REMARK   23  A    between atoms: _54  and  _56
REMARK   24  A    between atoms: _56  and  _57
REMARK   25  A    between atoms: _56  and  _59
REMARK   26  A    between atoms: _59  and  _60
REMARK   27  A    between atoms: _63  and  _65
REMARK   28  A    between atoms: _65  and  _66
REMARK   29  A    between atoms: _68  and  _70
REMARK   30  A    between atoms: _70  and  _71
REMARK   31  A    between atoms: _74  and  _76
REMARK   32  A    between atoms: _76  and  _77
REMARK   33  A    between atoms: _76  and  _79
REMARK   34  A    between atoms: _79  and  _80
REMARK   35  A    between atoms: _83  and  _85
REMARK   36  A    between atoms: _85  and  _86
REMARK   37  A    between atoms: _85  and  _88
REMARK   38  A    between atoms: _88  and  _89
REMARK   39  A    between atoms: _92  and  _94
REMARK   40  A    between atoms: _94  and  _95
REMARK   41  A    between atoms: _94  and  _97
REMARK   42  A    between atoms: _97  and  _98
REMARK   43  A    between atoms: _101  and  _103
REMARK   44  A    between atoms: _103  and  _104
REMARK   45  A    between atoms: _103  and  _106
REMARK   46  A    between atoms: _109  and  _111
REMARK   47  A    between atoms: _111  and  _112
REMARK   48  A    between atoms: _111  and  _114
REMARK   49  A    between atoms: _114  and  _115
REMARK   50  A    between atoms: _118  and  _120
REMARK   51  A    between atoms: _120  and  _121
REMARK   52  A    between atoms: _120  and  _123
REMARK   53  A    between atoms: _123  and  _124
REMARK   54  A    between atoms: _124  and  _125
REMARK   55  A    between atoms: _125  and  _126
REMARK   56  A    between atoms: _126  and  _127
REMARK   57  A    between atoms: _131  and  _133
REMARK   58  A    between atoms: _133  and  _134
REMARK   59  A    between atoms: _133  and  _136
REMARK   60  A    between atoms: _136  and  _137
REMARK   61  A    between atoms: _137  and  _138
REMARK   62  A    between atoms: _140  and  _142
REMARK   63  A    between atoms: _142  and  _143
REMARK   64  A    between atoms: _142  and  _145
REMARK   65  A    between atoms: _145  and  _146
REMARK   66  A    between atoms: _149  and  _151
REMARK   67  A    between atoms: _151  and  _152
REMARK   68  A    between atoms: _154  and  _156
REMARK   69  A    between atoms: _156  and  _157
REMARK   70  A    between atoms: _159  and  _161
REMARK   71  A    between atoms: _161  and  _162
REMARK   72  A    between atoms: _161  and  _164
REMARK   73  A    between atoms: _164  and  _165
REMARK   74  A    between atoms: _168  and  _170
REMARK   75  A    between atoms: _170  and  _171
REMARK   76  A    between atoms: _173  and  _175
REMARK   77  A    between atoms: _175  and  _176
REMARK   78  A    between atoms: _178  and  _180
REMARK   79  A    between atoms: _180  and  _181
REMARK   80  A    between atoms: _180  and  _183
REMARK   81  A    between atoms: _183  and  _184
REMARK   82  A    between atoms: _190  and  _192
REMARK   83  A    between atoms: _192  and  _193
REMARK   84  A    between atoms: _192  and  _195
REMARK   85  A    between atoms: _195  and  _196
REMARK   86  A    between atoms: _199  and  _201
REMARK   87  A    between atoms: _201  and  _202
REMARK   88  A    between atoms: _201  and  _204
REMARK   89  A    between atoms: _207  and  _209
REMARK   90  A    between atoms: _209  and  _210
REMARK   91  A    between atoms: _209  and  _212
REMARK   92  A    between atoms: _212  and  _213
REMARK   93  A    between atoms: _216  and  _218
REMARK   94  A    between atoms: _218  and  _219
REMARK   95  A    between atoms: _218  and  _221
REMARK   96  A    between atoms: _221  and  _222
REMARK   97  A    between atoms: _226  and  _227
REMARK   98  A    between atoms: _232  and  _234
REMARK   99  A    between atoms: _234  and  _235
REMARK  100  A    between atoms: _234  and  _237
REMARK  101  A    between atoms: _240  and  _242
REMARK  102  A    between atoms: _242  and  _243
REMARK  103  A    between atoms: _242  and  _245
REMARK  104  A    between atoms: _245  and  _246
REMARK  105  A    between atoms: _251  and  _253
REMARK  106  A    between atoms: _253  and  _254
REMARK  107  A    between atoms: _253  and  _256
REMARK  108  A    between atoms: _256  and  _257
REMARK  109  A    between atoms: _260  and  _262
REMARK  110  A    between atoms: _262  and  _263
REMARK  111  A    between atoms: _262  and  _265
REMARK  112  A    between atoms: _265  and  _266
REMARK  113  A    between atoms: _269  and  _271
REMARK  114  A    between atoms: _271  and  _272
REMARK  115  A    between atoms: _274  and  _276
REMARK  116  A    between atoms: _276  and  _277
REMARK  117  A    between atoms: _276  and  _279
REMARK  118  A    between atoms: _279  and  _280
REMARK  119  A    between atoms: _280  and  _281
REMARK  120  A    between atoms: _281  and  _282
REMARK  121  A    between atoms: _291  and  _293
REMARK  122  A    between atoms: _293  and  _294
REMARK  123  A    between atoms: _293  and  _296
REMARK  124  A    between atoms: _296  and  _297
REMARK  125  A    between atoms: _297  and  _298
REMARK  126  A    between atoms: _298  and  _299
REMARK  127  A    between atoms: _308  and  _310
REMARK  128  A    between atoms: _310  and  _311
REMARK  129  A    between atoms: _310  and  _313
REMARK  130  A    between atoms: _313  and  _314
REMARK  131  A    between atoms: _317  and  _319
REMARK  132  A    between atoms: _319  and  _320
REMARK  133  A    between atoms: _319  and  _322
REMARK  134  A    between atoms: _322  and  _323
REMARK  135  A    between atoms: _326  and  _328
REMARK  136  A    between atoms: _328  and  _329
REMARK  137  A    between atoms: _328  and  _331
REMARK  138  A    between atoms: _331  and  _332
REMARK  139  A    between atoms: _335  and  _337
REMARK  140  A    between atoms: _337  and  _338
REMARK  141  A    between atoms: _337  and  _340
REMARK  142  A    between atoms: _340  and  _341
REMARK  143  A    between atoms: _344  and  _346
REMARK  144  A    between atoms: _346  and  _347
REMARK  145  A    between atoms: _346  and  _349
REMARK  146  A    between atoms: _349  and  _350
REMARK  147  A    between atoms: _353  and  _355
REMARK  148  A    between atoms: _355  and  _356
REMARK  149  A    between atoms: _358  and  _360
REMARK  150  A    between atoms: _360  and  _361
REMARK  151  A    between atoms: _364  and  _366
REMARK  152  A    between atoms: _366  and  _367
REMARK  153  A    between atoms: _366  and  _369
REMARK  154  A    between atoms: _369  and  _370
REMARK  155  A    between atoms: _373  and  _375
REMARK  156  A    between atoms: _375  and  _376
REMARK  157  A    between atoms: _375  and  _378
REMARK  158  A    between atoms: _378  and  _379
REMARK  159  A    between atoms: _382  and  _384
REMARK  160  A    between atoms: _384  and  _385
REMARK  161  A    between atoms: _384  and  _387
REMARK  162  A    between atoms: _387  and  _388
REMARK  163  A    between atoms: _391  and  _393
REMARK  164  A    between atoms: _393  and  _394
REMARK  165  A    between atoms: _393  and  _396
REMARK  166  A    between atoms: _399  and  _401
REMARK  167  A    between atoms: _401  and  _402
REMARK  168  A    between atoms: _401  and  _404
REMARK  169  A    between atoms: _404  and  _405
REMARK  170  A    between atoms: _408  and  _410
REMARK  171  A    between atoms: _410  and  _411
REMARK  172  A    between atoms: _410  and  _413
REMARK  173  A    between atoms: _413  and  _414
REMARK  174  A    between atoms: _414  and  _415
REMARK  175  A    between atoms: _415  and  _416
REMARK  176  A    between atoms: _416  and  _417
REMARK  177  A    between atoms: _421  and  _423
REMARK  178  A    between atoms: _423  and  _424
REMARK  179  A    between atoms: _423  and  _426
REMARK  180  A    between atoms: _426  and  _427
REMARK  181  A    between atoms: _427  and  _428
REMARK  182  A    between atoms: _430  and  _432
REMARK  183  A    between atoms: _432  and  _433
REMARK  184  A    between atoms: _432  and  _435
REMARK  185  A    between atoms: _435  and  _436
REMARK  186  A    between atoms: _439  and  _441
REMARK  187  A    between atoms: _441  and  _442
REMARK  188  A    between atoms: _444  and  _446
REMARK  189  A    between atoms: _446  and  _447
REMARK  190  A    between atoms: _449  and  _451
REMARK  191  A    between atoms: _451  and  _452
REMARK  192  A    between atoms: _451  and  _454
REMARK  193  A    between atoms: _454  and  _455
REMARK  194  A    between atoms: _458  and  _460
REMARK  195  A    between atoms: _460  and  _461
REMARK  196  A    between atoms: _463  and  _465
REMARK  197  A    between atoms: _465  and  _466
REMARK  198  A    between atoms: _468  and  _470
REMARK  199  A    between atoms: _470  and  _471
REMARK  200  A    between atoms: _470  and  _473
REMARK  201  A    between atoms: _473  and  _474
REMARK  202  A    between atoms: _480  and  _482
REMARK  203  A    between atoms: _482  and  _483
REMARK  204  A    between atoms: _482  and  _485
REMARK  205  A    between atoms: _485  and  _486
REMARK  206  A    between atoms: _489  and  _491
REMARK  207  A    between atoms: _491  and  _492
REMARK  208  A    between atoms: _491  and  _494
REMARK  209  A    between atoms: _497  and  _499
REMARK  210  A    between atoms: _499  and  _500
REMARK  211  A    between atoms: _499  and  _502
REMARK  212  A    between atoms: _502  and  _503
REMARK  213  A    between atoms: _506  and  _508
REMARK  214  A    between atoms: _508  and  _509
REMARK  215  A    between atoms: _508  and  _511
REMARK  216  A    between atoms: _511  and  _512
REMARK  217  A    between atoms: _516  and  _517
REMARK  218  A    between atoms: _522  and  _524
REMARK  219  A    between atoms: _524  and  _525
REMARK  220  A    between atoms: _524  and  _527
REMARK  221  A    between atoms: _530  and  _532
REMARK  222  A    between atoms: _532  and  _533
REMARK  223  A    between atoms: _532  and  _535
REMARK  224  A    between atoms: _535  and  _536
REMARK  225  A    between atoms: _541  and  _543
REMARK  226  A    between atoms: _543  and  _544
REMARK  227  A    between atoms: _543  and  _546
REMARK  228  A    between atoms: _546  and  _547
REMARK  229  A    between atoms: _550  and  _552
REMARK  230  A    between atoms: _552  and  _553
REMARK  231  A    between atoms: _552  and  _555
REMARK  232  A    between atoms: _555  and  _556
REMARK  233  A    between atoms: _559  and  _561
REMARK  234  A    between atoms: _561  and  _562
REMARK  235  A    between atoms: _564  and  _566
REMARK  236  A    between atoms: _566  and  _567
REMARK  237  A    between atoms: _566  and  _569
REMARK  238  A    between atoms: _569  and  _570
REMARK  239  A    between atoms: _570  and  _571
REMARK  240  A    between atoms: _571  and  _572
REMARK                            x       y       z     vdW  Elec       q    Type
REMARK                         _______ _______ _______ _____ _____    ______ ____
ROOT
ATOM      1  O   HOH     1      23.411  16.836  10.871  0.00  0.00    +0.000 OA
ENDROOT
TORSDOF 0
REMARK  Name = ../refined-set-2016/1ebw/1ebw_pocket.pdb
REMARK  240 active torsions:
REMARK  status: ('A' for Active; 'I' for Inactive)
REMARK    1  A    between atoms: _1  and  _3
REMARK    2  A    between atoms: _3  and  _4
REMARK    3  A    between atoms: _3  and  _6
REMARK    4  A    between atoms: _6  and  _7
REMARK    5  A    between atoms: _7  and  _8
REMARK    6  A    between atoms: _8  and  _9
REMARK    7  A    between atoms: _18  and  _20
REMARK    8  A    between atoms: _20  and  _21
REMARK    9  A    between atoms: _20  and  _23
REMARK   10  A    between atoms: _23  and  _24
REMARK   11  A    between atoms: _27  and  _29
REMARK   12  A    between atoms: _29  and  _30
REMARK   13  A    between atoms: _29  and  _32
REMARK   14  A    between atoms: _32  and  _33
REMARK   15  A    between atoms: _36  and  _38
REMARK   16  A    between atoms: _38  and  _39
REMARK   17  A    between atoms: _38  and  _41
REMARK   18  A    between atoms: _41  and  _42
REMARK   19  A    between atoms: _45  and  _47
REMARK   20  A    between atoms: _47  and  _48
REMARK   21  A    between atoms: _47  and  _50
REMARK   22  A    between atoms: _50  and  _51
REMARK   23  A    between atoms: _54  and  _56
REMARK   24  A    between atoms: _56  and  _57
REMARK   25  A    between atoms: _56  and  _59
REMARK   26  A    between atoms: _59  and  _60
REMARK   27  A    between atoms: _63  and  _65
REMARK   28  A    between atoms: _65  and  _66
REMARK   29  A    between atoms: _68  and  _70
REMARK   30  A    between atoms: _70  and  _71
REMARK   31  A    between atoms: _74  and  _76
REMARK   32  A    between atoms: _76  and  _77
REMARK   33  A    between atoms: _76  and  _79
REMARK   34  A    between atoms: _79  and  _80
REMARK   35  A    between atoms: _83  and  _85
REMARK   36  A    between atoms: _85  and  _86
REMARK   37  A    between atoms: _85  and  _88
REMARK   38  A    between atoms: _88  and  _89
REMARK   39  A    between atoms: _92  and  _94
REMARK   40  A    between atoms: _94  and  _95
REMARK   41  A    between atoms: _94  and  _97
REMARK   42  A    between atoms: _97  and  _98
REMARK   43  A    between atoms: _101  and  _103
REMARK   44  A    between atoms: _103  and  _104
REMARK   45  A    between atoms: _103  and  _106
REMARK   46  A    between atoms: _109  and  _111
REMARK   47  A    between atoms: _111  and  _112
REMARK   48  A    between atoms: _111  and  _114
REMARK   49  A    between atoms: _114  and  _115
REMARK   50  A    between atoms: _118  and  _120
REMARK   51  A    between atoms: _120  and  _121
REMARK   52  A    between atoms: _120  and  _123
REMARK   53  A    between atoms: _123  and  _124
REMARK   54  A    between atoms: _124  and  _125
REMARK   55  A    between atoms: _125  and  _126
REMARK   56  A    between atoms: _126  and  _127
REMARK   57  A    between atoms: _131  and  _133
REMARK   58  A    between atoms: _133  and  _134
REMARK   59  A    between atoms: _133  and  _136
REMARK   60  A    between atoms: _136  and  _137
REMARK   61  A    between atoms: _137  and  _138
REMARK   62  A    between atoms: _140  and  _142
REMARK   63  A    between atoms: _142  and  _143
REMARK   64  A    between atoms: _142  and  _145
REMARK   65  A    between atoms: _145  and  _146
REMARK   66  A    between atoms: _149  and  _151
REMARK   67  A    between atoms: _151  and  _152
REMARK   68  A    between atoms: _154  and  _156
REMARK   69  A    between atoms: _156  and  _157
REMARK   70  A    between atoms: _159  and  _161
REMARK   71  A    between atoms: _161  and  _162
REMARK   72  A    between atoms: _161  and  _164
REMARK   73  A    between atoms: _164  and  _165
REMARK   74  A    between atoms: _168  and  _170
REMARK   75  A    between atoms: _170  and  _171
REMARK   76  A    between atoms: _173  and  _175
REMARK   77  A    between atoms: _175  and  _176
REMARK   78  A    between atoms: _178  and  _180
REMARK   79  A    between atoms: _180  and  _181
REMARK   80  A    between atoms: _180  and  _183
REMARK   81  A    between atoms: _183  and  _184
REMARK   82  A    between atoms: _190  and  _192
REMARK   83  A    between atoms: _192  and  _193
REMARK   84  A    between atoms: _192  and  _195
REMARK   85  A    between atoms: _195  and  _196
REMARK   86  A    between atoms: _199  and  _201
REMARK   87  A    between atoms: _201  and  _202
REMARK   88  A    between atoms: _201  and  _204
REMARK   89  A    between atoms: _207  and  _209
REMARK   90  A    between atoms: _209  and  _210
REMARK   91  A    between atoms: _209  and  _212
REMARK   92  A    between atoms: _212  and  _213
REMARK   93  A    between atoms: _216  and  _218
REMARK   94  A    between atoms: _218  and  _219
REMARK   95  A    between atoms: _218  and  _221
REMARK   96  A    between atoms: _221  and  _222
REMARK   97  A    between atoms: _226  and  _227
REMARK   98  A    between atoms: _232  and  _234
REMARK   99  A    between atoms: _234  and  _235
REMARK  100  A    between atoms: _234  and  _237
REMARK  101  A    between atoms: _240  and  _242
REMARK  102  A    between atoms: _242  and  _243
REMARK  103  A    between atoms: _242  and  _245
REMARK  104  A    between atoms: _245  and  _246
REMARK  105  A    between atoms: _251  and  _253
REMARK  106  A    between atoms: _253  and  _254
REMARK  107  A    between atoms: _253  and  _256
REMARK  108  A    between atoms: _256  and  _257
REMARK  109  A    between atoms: _260  and  _262
REMARK  110  A    between atoms: _262  and  _263
REMARK  111  A    between atoms: _262  and  _265
REMARK  112  A    between atoms: _265  and  _266
REMARK  113  A    between atoms: _269  and  _271
REMARK  114  A    between atoms: _271  and  _272
REMARK  115  A    between atoms: _274  and  _276
REMARK  116  A    between atoms: _276  and  _277
REMARK  117  A    between atoms: _276  and  _279
REMARK  118  A    between atoms: _279  and  _280
REMARK  119  A    between atoms: _280  and  _281
REMARK  120  A    between atoms: _281  and  _282
REMARK  121  A    between atoms: _291  and  _293
REMARK  122  A    between atoms: _293  and  _294
REMARK  123  A    between atoms: _293  and  _296
REMARK  124  A    between atoms: _296  and  _297
REMARK  125  A    between atoms: _297  and  _298
REMARK  126  A    between atoms: _298  and  _299
REMARK  127  A    between atoms: _308  and  _310
REMARK  128  A    between atoms: _310  and  _311
REMARK  129  A    between atoms: _310  and  _313
REMARK  130  A    between atoms: _313  and  _314
REMARK  131  A    between atoms: _317  and  _319
REMARK  132  A    between atoms: _319  and  _320
REMARK  133  A    between atoms: _319  and  _322
REMARK  134  A    between atoms: _322  and  _323
REMARK  135  A    between atoms: _326  and  _328
REMARK  136  A    between atoms: _328  and  _329
REMARK  137  A    between atoms: _328  and  _331
REMARK  138  A    between atoms: _331  and  _332
REMARK  139  A    between atoms: _335  and  _337
REMARK  140  A    between atoms: _337  and  _338
REMARK  141  A    between atoms: _337  and  _340
REMARK  142  A    between atoms: _340  and  _341
REMARK  143  A    between atoms: _344  and  _346
REMARK  144  A    between atoms: _346  and  _347
REMARK  145  A    between atoms: _346  and  _349
REMARK  146  A    between atoms: _349  and  _350
REMARK  147  A    between atoms: _353  and  _355
REMARK  148  A    between atoms: _355  and  _356
REMARK  149  A    between atoms: _358  and  _360
REMARK  150  A    between atoms: _360  and  _361
REMARK  151  A    between atoms: _364  and  _366
REMARK  152  A    between atoms: _366  and  _367
REMARK  153  A    between atoms: _366  and  _369
REMARK  154  A    between atoms: _369  and  _370
REMARK  155  A    between atoms: _373  and  _375
REMARK  156  A    between atoms: _375  and  _376
REMARK  157  A    between atoms: _375  and  _378
REMARK  158  A    between atoms: _378  and  _379
REMARK  159  A    between atoms: _382  and  _384
REMARK  160  A    between atoms: _384  and  _385
REMARK  161  A    between atoms: _384  and  _387
REMARK  162  A    between atoms: _387  and  _388
REMARK  163  A    between atoms: _391  and  _393
REMARK  164  A    between atoms: _393  and  _394
REMARK  165  A    between atoms: _393  and  _396
REMARK  166  A    between atoms: _399  and  _401
REMARK  167  A    between atoms: _401  and  _402
REMARK  168  A    between atoms: _401  and  _404
REMARK  169  A    between atoms: _404  and  _405
REMARK  170  A    between atoms: _408  and  _410
REMARK  171  A    between atoms: _410  and  _411
REMARK  172  A    between atoms: _410  and  _413
REMARK  173  A    between atoms: _413  and  _414
REMARK  174  A    between atoms: _414  and  _415
REMARK  175  A    between atoms: _415  and  _416
REMARK  176  A    between atoms: _416  and  _417
REMARK  177  A    between atoms: _421  and  _423
REMARK  178  A    between atoms: _423  and  _424
REMARK  179  A    between atoms: _423  and  _426
REMARK  180  A    between atoms: _426  and  _427
REMARK  181  A    between atoms: _427  and  _428
REMARK  182  A    between atoms: _430  and  _432
REMARK  183  A    between atoms: _432  and  _433
REMARK  184  A    between atoms: _432  and  _435
REMARK  185  A    between atoms: _435  and  _436
REMARK  186  A    between atoms: _439  and  _441
REMARK  187  A    between atoms: _441  and  _442
REMARK  188  A    between atoms: _444  and  _446
REMARK  189  A    between atoms: _446  and  _447
REMARK  190  A    between atoms: _449  and  _451
REMARK  191  A    between atoms: _451  and  _452
REMARK  192  A    between atoms: _451  and  _454
REMARK  193  A    between atoms: _454  and  _455
REMARK  194  A    between atoms: _458  and  _460
REMARK  195  A    between atoms: _460  and  _461
REMARK  196  A    between atoms: _463  and  _465
REMARK  197  A    between atoms: _465  and  _466
REMARK  198  A    between atoms: _468  and  _470
REMARK  199  A    between atoms: _470  and  _471
REMARK  200  A    between atoms: _470  and  _473
REMARK  201  A    between atoms: _473  and  _474
REMARK  202  A    between atoms: _480  and  _482
REMARK  203  A    between atoms: _482  and  _483
REMARK  204  A    between atoms: _482  and  _485
REMARK  205  A    between atoms: _485  and  _486
REMARK  206  A    between atoms: _489  and  _491
REMARK  207  A    between atoms: _491  and  _492
REMARK  208  A    between atoms: _491  and  _494
REMARK  209  A    between atoms: _497  and  _499
REMARK  210  A    between atoms: _499  and  _500
REMARK  211  A    between atoms: _499  and  _502
REMARK  212  A    between atoms: _502  and  _503
REMARK  213  A    between atoms: _506  and  _508
REMARK  214  A    between atoms: _508  and  _509
REMARK  215  A    between atoms: _508  and  _511
REMARK  216  A    between atoms: _511  and  _512
REMARK  217  A    between atoms: _516  and  _517
REMARK  218  A    between atoms: _522  and  _524
REMARK  219  A    between atoms: _524  and  _525
REMARK  220  A    between atoms: _524  and  _527
REMARK  221  A    between atoms: _530  and  _532
REMARK  222  A    between atoms: _532  and  _533
REMARK  223  A    between atoms: _532  and  _535
REMARK  224  A    between atoms: _535  and  _536
REMARK  225  A    between atoms: _541  and  _543
REMARK  226  A    between atoms: _543  and  _544
REMARK  227  A    between atoms: _543  and  _546
REMARK  228  A    between atoms: _546  and  _547
REMARK  229  A    between atoms: _550  and  _552
REMARK  230  A    between atoms: _552  and  _553
REMARK  231  A    between atoms: _552  and  _555
REMARK  232  A    between atoms: _555  and  _556
REMARK  233  A    between atoms: _559  and  _561
REMARK  234  A    between atoms: _561  and  _562
REMARK  235  A    between atoms: _564  and  _566
REMARK  236  A    between atoms: _566  and  _567
REMARK  237  A    between atoms: _566  and  _569
REMARK  238  A    between atoms: _569  and  _570
REMARK  239  A    between atoms: _570  and  _571
REMARK  240  A    between atoms: _571  and  _572
REMARK                            x       y       z     vdW  Elec       q    Type
REMARK                         _______ _______ _______ _____ _____    ______ ____
ROOT
ATOM      1  O   HOH     1       3.830  23.565   4.329  0.00  0.00    +0.000 OA
ENDROOT
TORSDOF 0
REMARK  Name = ../refined-set-2016/1ebw/1ebw_pocket.pdb
REMARK  240 active torsions:
REMARK  status: ('A' for Active; 'I' for Inactive)
REMARK    1  A    between atoms: _1  and  _3
REMARK    2  A    between atoms: _3  and  _4
REMARK    3  A    between atoms: _3  and  _6
REMARK    4  A    between atoms: _6  and  _7
REMARK    5  A    between atoms: _7  and  _8
REMARK    6  A    between atoms: _8  and  _9
REMARK    7  A    between atoms: _18  and  _20
REMARK    8  A    between atoms: _20  and  _21
REMARK    9  A    between atoms: _20  and  _23
REMARK   10  A    between atoms: _23  and  _24
REMARK   11  A    between atoms: _27  and  _29
REMARK   12  A    between atoms: _29  and  _30
REMARK   13  A    between atoms: _29  and  _32
REMARK   14  A    between atoms: _32  and  _33
REMARK   15  A    between atoms: _36  and  _38
REMARK   16  A    between atoms: _38  and  _39
REMARK   17  A    between atoms: _38  and  _41
REMARK   18  A    between atoms: _41  and  _42
REMARK   19  A    between atoms: _45  and  _47
REMARK   20  A    between atoms: _47  and  _48
REMARK   21  A    between atoms: _47  and  _50
REMARK   22  A    between atoms: _50  and  _51
REMARK   23  A    between atoms: _54  and  _56
REMARK   24  A    between atoms: _56  and  _57
REMARK   25  A    between atoms: _56  and  _59
REMARK   26  A    between atoms: _59  and  _60
REMARK   27  A    between atoms: _63  and  _65
REMARK   28  A    between atoms: _65  and  _66
REMARK   29  A    between atoms: _68  and  _70
REMARK   30  A    between atoms: _70  and  _71
REMARK   31  A    between atoms: _74  and  _76
REMARK   32  A    between atoms: _76  and  _77
REMARK   33  A    between atoms: _76  and  _79
REMARK   34  A    between atoms: _79  and  _80
REMARK   35  A    between atoms: _83  and  _85
REMARK   36  A    between atoms: _85  and  _86
REMARK   37  A    between atoms: _85  and  _88
REMARK   38  A    between atoms: _88  and  _89
REMARK   39  A    between atoms: _92  and  _94
REMARK   40  A    between atoms: _94  and  _95
REMARK   41  A    between atoms: _94  and  _97
REMARK   42  A    between atoms: _97  and  _98
REMARK   43  A    between atoms: _101  and  _103
REMARK   44  A    between atoms: _103  and  _104
REMARK   45  A    between atoms: _103  and  _106
REMARK   46  A    between atoms: _109  and  _111
REMARK   47  A    between atoms: _111  and  _112
REMARK   48  A    between atoms: _111  and  _114
REMARK   49  A    between atoms: _114  and  _115
REMARK   50  A    between atoms: _118  and  _120
REMARK   51  A    between atoms: _120  and  _121
REMARK   52  A    between atoms: _120  and  _123
REMARK   53  A    between atoms: _123  and  _124
REMARK   54  A    between atoms: _124  and  _125
REMARK   55  A    between atoms: _125  and  _126
REMARK   56  A    between atoms: _126  and  _127
REMARK   57  A    between atoms: _131  and  _133
REMARK   58  A    between atoms: _133  and  _134
REMARK   59  A    between atoms: _133  and  _136
REMARK   60  A    between atoms: _136  and  _137
REMARK   61  A    between atoms: _137  and  _138
REMARK   62  A    between atoms: _140  and  _142
REMARK   63  A    between atoms: _142  and  _143
REMARK   64  A    between atoms: _142  and  _145
REMARK   65  A    between atoms: _145  and  _146
REMARK   66  A    between atoms: _149  and  _151
REMARK   67  A    between atoms: _151  and  _152
REMARK   68  A    between atoms: _154  and  _156
REMARK   69  A    between atoms: _156  and  _157
REMARK   70  A    between atoms: _159  and  _161
REMARK   71  A    between atoms: _161  and  _162
REMARK   72  A    between atoms: _161  and  _164
REMARK   73  A    between atoms: _164  and  _165
REMARK   74  A    between atoms: _168  and  _170
REMARK   75  A    between atoms: _170  and  _171
REMARK   76  A    between atoms: _173  and  _175
REMARK   77  A    between atoms: _175  and  _176
REMARK   78  A    between atoms: _178  and  _180
REMARK   79  A    between atoms: _180  and  _181
REMARK   80  A    between atoms: _180  and  _183
REMARK   81  A    between atoms: _183  and  _184
REMARK   82  A    between atoms: _190  and  _192
REMARK   83  A    between atoms: _192  and  _193
REMARK   84  A    between atoms: _192  and  _195
REMARK   85  A    between atoms: _195  and  _196
REMARK   86  A    between atoms: _199  and  _201
REMARK   87  A    between atoms: _201  and  _202
REMARK   88  A    between atoms: _201  and  _204
REMARK   89  A    between atoms: _207  and  _209
REMARK   90  A    between atoms: _209  and  _210
REMARK   91  A    between atoms: _209  and  _212
REMARK   92  A    between atoms: _212  and  _213
REMARK   93  A    between atoms: _216  and  _218
REMARK   94  A    between atoms: _218  and  _219
REMARK   95  A    between atoms: _218  and  _221
REMARK   96  A    between atoms: _221  and  _222
REMARK   97  A    between atoms: _226  and  _227
REMARK   98  A    between atoms: _232  and  _234
REMARK   99  A    between atoms: _234  and  _235
REMARK  100  A    between atoms: _234  and  _237
REMARK  101  A    between atoms: _240  and  _242
REMARK  102  A    between atoms: _242  and  _243
REMARK  103  A    between atoms: _242  and  _245
REMARK  104  A    between atoms: _245  and  _246
REMARK  105  A    between atoms: _251  and  _253
REMARK  106  A    between atoms: _253  and  _254
REMARK  107  A    between atoms: _253  and  _256
REMARK  108  A    between atoms: _256  and  _257
REMARK  109  A    between atoms: _260  and  _262
REMARK  110  A    between atoms: _262  and  _263
REMARK  111  A    between atoms: _262  and  _265
REMARK  112  A    between atoms: _265  and  _266
REMARK  113  A    between atoms: _269  and  _271
REMARK  114  A    between atoms: _271  and  _272
REMARK  115  A    between atoms: _274  and  _276
REMARK  116  A    between atoms: _276  and  _277
REMARK  117  A    between atoms: _276  and  _279
REMARK  118  A    between atoms: _279  and  _280
REMARK  119  A    between atoms: _280  and  _281
REMARK  120  A    between atoms: _281  and  _282
REMARK  121  A    between atoms: _291  and  _293
REMARK  122  A    between atoms: _293  and  _294
REMARK  123  A    between atoms: _293  and  _296
REMARK  124  A    between atoms: _296  and  _297
REMARK  125  A    between atoms: _297  and  _298
REMARK  126  A    between atoms: _298  and  _299
REMARK  127  A    between atoms: _308  and  _310
REMARK  128  A    between atoms: _310  and  _311
REMARK  129  A    between atoms: _310  and  _313
REMARK  130  A    between atoms: _313  and  _314
REMARK  131  A    between atoms: _317  and  _319
REMARK  132  A    between atoms: _319  and  _320
REMARK  133  A    between atoms: _319  and  _322
REMARK  134  A    between atoms: _322  and  _323
REMARK  135  A    between atoms: _326  and  _328
REMARK  136  A    between atoms: _328  and  _329
REMARK  137  A    between atoms: _328  and  _331
REMARK  138  A    between atoms: _331  and  _332
REMARK  139  A    between atoms: _335  and  _337
REMARK  140  A    between atoms: _337  and  _338
REMARK  141  A    between atoms: _337  and  _340
REMARK  142  A    between atoms: _340  and  _341
REMARK  143  A    between atoms: _344  and  _346
REMARK  144  A    between atoms: _346  and  _347
REMARK  145  A    between atoms: _346  and  _349
REMARK  146  A    between atoms: _349  and  _350
REMARK  147  A    between atoms: _353  and  _355
REMARK  148  A    between atoms: _355  and  _356
REMARK  149  A    between atoms: _358  and  _360
REMARK  150  A    between atoms: _360  and  _361
REMARK  151  A    between atoms: _364  and  _366
REMARK  152  A    between atoms: _366  and  _367
REMARK  153  A    between atoms: _366  and  _369
REMARK  154  A    between atoms: _369  and  _370
REMARK  155  A    between atoms: _373  and  _375
REMARK  156  A    between atoms: _375  and  _376
REMARK  157  A    between atoms: _375  and  _378
REMARK  158  A    between atoms: _378  and  _379
REMARK  159  A    between atoms: _382  and  _384
REMARK  160  A    between atoms: _384  and  _385
REMARK  161  A    between atoms: _384  and  _387
REMARK  162  A    between atoms: _387  and  _388
REMARK  163  A    between atoms: _391  and  _393
REMARK  164  A    between atoms: _393  and  _394
REMARK  165  A    between atoms: _393  and  _396
REMARK  166  A    between atoms: _399  and  _401
REMARK  167  A    between atoms: _401  and  _402
REMARK  168  A    between atoms: _401  and  _404
REMARK  169  A    between atoms: _404  and  _405
REMARK  170  A    between atoms: _408  and  _410
REMARK  171  A    between atoms: _410  and  _411
REMARK  172  A    between atoms: _410  and  _413
REMARK  173  A    between atoms: _413  and  _414
REMARK  174  A    between atoms: _414  and  _415
REMARK  175  A    between atoms: _415  and  _416
REMARK  176  A    between atoms: _416  and  _417
REMARK  177  A    between atoms: _421  and  _423
REMARK  178  A    between atoms: _423  and  _424
REMARK  179  A    between atoms: _423  and  _426
REMARK  180  A    between atoms: _426  and  _427
REMARK  181  A    between atoms: _427  and  _428
REMARK  182  A    between atoms: _430  and  _432
REMARK  183  A    between atoms: _432  and  _433
REMARK  184  A    between atoms: _432  and  _435
REMARK  185  A    between atoms: _435  and  _436
REMARK  186  A    between atoms: _439  and  _441
REMARK  187  A    between atoms: _441  and  _442
REMARK  188  A    between atoms: _444  and  _446
REMARK  189  A    between atoms: _446  and  _447
REMARK  190  A    between atoms: _449  and  _451
REMARK  191  A    between atoms: _451  and  _452
REMARK  192  A    between atoms: _451  and  _454
REMARK  193  A    between atoms: _454  and  _455
REMARK  194  A    between atoms: _458  and  _460
REMARK  195  A    between atoms: _460  and  _461
REMARK  196  A    between atoms: _463  and  _465
REMARK  197  A    between atoms: _465  and  _466
REMARK  198  A    between atoms: _468  and  _470
REMARK  199  A    between atoms: _470  and  _471
REMARK  200  A    between atoms: _470  and  _473
REMARK  201  A    between atoms: _473  and  _474
REMARK  202  A    between atoms: _480  and  _482
REMARK  203  A    between atoms: _482  and  _483
REMARK  204  A    between atoms: _482  and  _485
REMARK  205  A    between atoms: _485  and  _486
REMARK  206  A    between atoms: _489  and  _491
REMARK  207  A    between atoms: _491  and  _492
REMARK  208  A    between atoms: _491  and  _494
REMARK  209  A    between atoms: _497  and  _499
REMARK  210  A    between atoms: _499  and  _500
REMARK  211  A    between atoms: _499  and  _502
REMARK  212  A    between atoms: _502  and  _503
REMARK  213  A    between atoms: _506  and  _508
REMARK  214  A    between atoms: _508  and  _509
REMARK  215  A    between atoms: _508  and  _511
REMARK  216  A    between atoms: _511  and  _512
REMARK  217  A    between atoms: _516  and  _517
REMARK  218  A    between atoms: _522  and  _524
REMARK  219  A    between atoms: _524  and  _525
REMARK  220  A    between atoms: _524  and  _527
REMARK  221  A    between atoms: _530  and  _532
REMARK  222  A    between atoms: _532  and  _533
REMARK  223  A    between atoms: _532  and  _535
REMARK  224  A    between atoms: _535  and  _536
REMARK  225  A    between atoms: _541  and  _543
REMARK  226  A    between atoms: _543  and  _544
REMARK  227  A    between atoms: _543  and  _546
REMARK  228  A    between atoms: _546  and  _547
REMARK  229  A    between atoms: _550  and  _552
REMARK  230  A    between atoms: _552  and  _553
REMARK  231  A    between atoms: _552  and  _555
REMARK  232  A    between atoms: _555  and  _556
REMARK  233  A    between atoms: _559  and  _561
REMARK  234  A    between atoms: _561  and  _562
REMARK  235  A    between atoms: _564  and  _566
REMARK  236  A    between atoms: _566  and  _567
REMARK  237  A    between atoms: _566  and  _569
REMARK  238  A    between atoms: _569  and  _570
REMARK  239  A    between atoms: _570  and  _571
REMARK  240  A    between atoms: _571  and  _572
REMARK                            x       y       z     vdW  Elec       q    Type
REMARK                         _______ _______ _______ _____ _____    ______ ____
ROOT
ATOM      1  O   HOH     1       5.052  21.052   4.683  0.00  0.00    +0.000 OA
ENDROOT
TORSDOF 0
REMARK  Name = ../refined-set-2016/1ebw/1ebw_pocket.pdb
REMARK  240 active torsions:
REMARK  status: ('A' for Active; 'I' for Inactive)
REMARK    1  A    between atoms: _1  and  _3
REMARK    2  A    between atoms: _3  and  _4
REMARK    3  A    between atoms: _3  and  _6
REMARK    4  A    between atoms: _6  and  _7
REMARK    5  A    between atoms: _7  and  _8
REMARK    6  A    between atoms: _8  and  _9
REMARK    7  A    between atoms: _18  and  _20
REMARK    8  A    between atoms: _20  and  _21
REMARK    9  A    between atoms: _20  and  _23
REMARK   10  A    between atoms: _23  and  _24
REMARK   11  A    between atoms: _27  and  _29
REMARK   12  A    between atoms: _29  and  _30
REMARK   13  A    between atoms: _29  and  _32
REMARK   14  A    between atoms: _32  and  _33
REMARK   15  A    between atoms: _36  and  _38
REMARK   16  A    between atoms: _38  and  _39
REMARK   17  A    between atoms: _38  and  _41
REMARK   18  A    between atoms: _41  and  _42
REMARK   19  A    between atoms: _45  and  _47
REMARK   20  A    between atoms: _47  and  _48
REMARK   21  A    between atoms: _47  and  _50
REMARK   22  A    between atoms: _50  and  _51
REMARK   23  A    between atoms: _54  and  _56
REMARK   24  A    between atoms: _56  and  _57
REMARK   25  A    between atoms: _56  and  _59
REMARK   26  A    between atoms: _59  and  _60
REMARK   27  A    between atoms: _63  and  _65
REMARK   28  A    between atoms: _65  and  _66
REMARK   29  A    between atoms: _68  and  _70
REMARK   30  A    between atoms: _70  and  _71
REMARK   31  A    between atoms: _74  and  _76
REMARK   32  A    between atoms: _76  and  _77
REMARK   33  A    between atoms: _76  and  _79
REMARK   34  A    between atoms: _79  and  _80
REMARK   35  A    between atoms: _83  and  _85
REMARK   36  A    between atoms: _85  and  _86
REMARK   37  A    between atoms: _85  and  _88
REMARK   38  A    between atoms: _88  and  _89
REMARK   39  A    between atoms: _92  and  _94
REMARK   40  A    between atoms: _94  and  _95
REMARK   41  A    between atoms: _94  and  _97
REMARK   42  A    between atoms: _97  and  _98
REMARK   43  A    between atoms: _101  and  _103
REMARK   44  A    between atoms: _103  and  _104
REMARK   45  A    between atoms: _103  and  _106
REMARK   46  A    between atoms: _109  and  _111
REMARK   47  A    between atoms: _111  and  _112
REMARK   48  A    between atoms: _111  and  _114
REMARK   49  A    between atoms: _114  and  _115
REMARK   50  A    between atoms: _118  and  _120
REMARK   51  A    between atoms: _120  and  _121
REMARK   52  A    between atoms: _120  and  _123
REMARK   53  A    between atoms: _123  and  _124
REMARK   54  A    between atoms: _124  and  _125
REMARK   55  A    between atoms: _125  and  _126
REMARK   56  A    between atoms: _126  and  _127
REMARK   57  A    between atoms: _131  and  _133
REMARK   58  A    between atoms: _133  and  _134
REMARK   59  A    between atoms: _133  and  _136
REMARK   60  A    between atoms: _136  and  _137
REMARK   61  A    between atoms: _137  and  _138
REMARK   62  A    between atoms: _140  and  _142
REMARK   63  A    between atoms: _142  and  _143
REMARK   64  A    between atoms: _142  and  _145
REMARK   65  A    between atoms: _145  and  _146
REMARK   66  A    between atoms: _149  and  _151
REMARK   67  A    between atoms: _151  and  _152
REMARK   68  A    between atoms: _154  and  _156
REMARK   69  A    between atoms: _156  and  _157
REMARK   70  A    between atoms: _159  and  _161
REMARK   71  A    between atoms: _161  and  _162
REMARK   72  A    between atoms: _161  and  _164
REMARK   73  A    between atoms: _164  and  _165
REMARK   74  A    between atoms: _168  and  _170
REMARK   75  A    between atoms: _170  and  _171
REMARK   76  A    between atoms: _173  and  _175
REMARK   77  A    between atoms: _175  and  _176
REMARK   78  A    between atoms: _178  and  _180
REMARK   79  A    between atoms: _180  and  _181
REMARK   80  A    between atoms: _180  and  _183
REMARK   81  A    between atoms: _183  and  _184
REMARK   82  A    between atoms: _190  and  _192
REMARK   83  A    between atoms: _192  and  _193
REMARK   84  A    between atoms: _192  and  _195
REMARK   85  A    between atoms: _195  and  _196
REMARK   86  A    between atoms: _199  and  _201
REMARK   87  A    between atoms: _201  and  _202
REMARK   88  A    between atoms: _201  and  _204
REMARK   89  A    between atoms: _207  and  _209
REMARK   90  A    between atoms: _209  and  _210
REMARK   91  A    between atoms: _209  and  _212
REMARK   92  A    between atoms: _212  and  _213
REMARK   93  A    between atoms: _216  and  _218
REMARK   94  A    between atoms: _218  and  _219
REMARK   95  A    between atoms: _218  and  _221
REMARK   96  A    between atoms: _221  and  _222
REMARK   97  A    between atoms: _226  and  _227
REMARK   98  A    between atoms: _232  and  _234
REMARK   99  A    between atoms: _234  and  _235
REMARK  100  A    between atoms: _234  and  _237
REMARK  101  A    between atoms: _240  and  _242
REMARK  102  A    between atoms: _242  and  _243
REMARK  103  A    between atoms: _242  and  _245
REMARK  104  A    between atoms: _245  and  _246
REMARK  105  A    between atoms: _251  and  _253
REMARK  106  A    between atoms: _253  and  _254
REMARK  107  A    between atoms: _253  and  _256
REMARK  108  A    between atoms: _256  and  _257
REMARK  109  A    between atoms: _260  and  _262
REMARK  110  A    between atoms: _262  and  _263
REMARK  111  A    between atoms: _262  and  _265
REMARK  112  A    between atoms: _265  and  _266
REMARK  113  A    between atoms: _269  and  _271
REMARK  114  A    between atoms: _271  and  _272
REMARK  115  A    between atoms: _274  and  _276
REMARK  116  A    between atoms: _276  and  _277
REMARK  117  A    between atoms: _276  and  _279
REMARK  118  A    between atoms: _279  and  _280
REMARK  119  A    between atoms: _280  and  _281
REMARK  120  A    between atoms: _281  and  _282
REMARK  121  A    between atoms: _291  and  _293
REMARK  122  A    between atoms: _293  and  _294
REMARK  123  A    between atoms: _293  and  _296
REMARK  124  A    between atoms: _296  and  _297
REMARK  125  A    between atoms: _297  and  _298
REMARK  126  A    between atoms: _298  and  _299
REMARK  127  A    between atoms: _308  and  _310
REMARK  128  A    between atoms: _310  and  _311
REMARK  129  A    between atoms: _310  and  _313
REMARK  130  A    between atoms: _313  and  _314
REMARK  131  A    between atoms: _317  and  _319
REMARK  132  A    between atoms: _319  and  _320
REMARK  133  A    between atoms: _319  and  _322
REMARK  134  A    between atoms: _322  and  _323
REMARK  135  A    between atoms: _326  and  _328
REMARK  136  A    between atoms: _328  and  _329
REMARK  137  A    between atoms: _328  and  _331
REMARK  138  A    between atoms: _331  and  _332
REMARK  139  A    between atoms: _335  and  _337
REMARK  140  A    between atoms: _337  and  _338
REMARK  141  A    between atoms: _337  and  _340
REMARK  142  A    between atoms: _340  and  _341
REMARK  143  A    between atoms: _344  and  _346
REMARK  144  A    between atoms: _346  and  _347
REMARK  145  A    between atoms: _346  and  _349
REMARK  146  A    between atoms: _349  and  _350
REMARK  147  A    between atoms: _353  and  _355
REMARK  148  A    between atoms: _355  and  _356
REMARK  149  A    between atoms: _358  and  _360
REMARK  150  A    between atoms: _360  and  _361
REMARK  151  A    between atoms: _364  and  _366
REMARK  152  A    between atoms: _366  and  _367
REMARK  153  A    between atoms: _366  and  _369
REMARK  154  A    between atoms: _369  and  _370
REMARK  155  A    between atoms: _373  and  _375
REMARK  156  A    between atoms: _375  and  _376
REMARK  157  A    between atoms: _375  and  _378
REMARK  158  A    between atoms: _378  and  _379
REMARK  159  A    between atoms: _382  and  _384
REMARK  160  A    between atoms: _384  and  _385
REMARK  161  A    between atoms: _384  and  _387
REMARK  162  A    between atoms: _387  and  _388
REMARK  163  A    between atoms: _391  and  _393
REMARK  164  A    between atoms: _393  and  _394
REMARK  165  A    between atoms: _393  and  _396
REMARK  166  A    between atoms: _399  and  _401
REMARK  167  A    between atoms: _401  and  _402
REMARK  168  A    between atoms: _401  and  _404
REMARK  169  A    between atoms: _404  and  _405
REMARK  170  A    between atoms: _408  and  _410
REMARK  171  A    between atoms: _410  and  _411
REMARK  172  A    between atoms: _410  and  _413
REMARK  173  A    between atoms: _413  and  _414
REMARK  174  A    between atoms: _414  and  _415
REMARK  175  A    between atoms: _415  and  _416
REMARK  176  A    between atoms: _416  and  _417
REMARK  177  A    between atoms: _421  and  _423
REMARK  178  A    between atoms: _423  and  _424
REMARK  179  A    between atoms: _423  and  _426
REMARK  180  A    between atoms: _426  and  _427
REMARK  181  A    between atoms: _427  and  _428
REMARK  182  A    between atoms: _430  and  _432
REMARK  183  A    between atoms: _432  and  _433
REMARK  184  A    between atoms: _432  and  _435
REMARK  185  A    between atoms: _435  and  _436
REMARK  186  A    between atoms: _439  and  _441
REMARK  187  A    between atoms: _441  and  _442
REMARK  188  A    between atoms: _444  and  _446
REMARK  189  A    between atoms: _446  and  _447
REMARK  190  A    between atoms: _449  and  _451
REMARK  191  A    between atoms: _451  and  _452
REMARK  192  A    between atoms: _451  and  _454
REMARK  193  A    between atoms: _454  and  _455
REMARK  194  A    between atoms: _458  and  _460
REMARK  195  A    between atoms: _460  and  _461
REMARK  196  A    between atoms: _463  and  _465
REMARK  197  A    between atoms: _465  and  _466
REMARK  198  A    between atoms: _468  and  _470
REMARK  199  A    between atoms: _470  and  _471
REMARK  200  A    between atoms: _470  and  _473
REMARK  201  A    between atoms: _473  and  _474
REMARK  202  A    between atoms: _480  and  _482
REMARK  203  A    between atoms: _482  and  _483
REMARK  204  A    between atoms: _482  and  _485
REMARK  205  A    between atoms: _485  and  _486
REMARK  206  A    between atoms: _489  and  _491
REMARK  207  A    between atoms: _491  and  _492
REMARK  208  A    between atoms: _491  and  _494
REMARK  209  A    between atoms: _497  and  _499
REMARK  210  A    between atoms: _499  and  _500
REMARK  211  A    between atoms: _499  and  _502
REMARK  212  A    between atoms: _502  and  _503
REMARK  213  A    between atoms: _506  and  _508
REMARK  214  A    between atoms: _508  and  _509
REMARK  215  A    between atoms: _508  and  _511
REMARK  216  A    between atoms: _511  and  _512
REMARK  217  A    between atoms: _516  and  _517
REMARK  218  A    between atoms: _522  and  _524
REMARK  219  A    between atoms: _524  and  _525
REMARK  220  A    between atoms: _524  and  _527
REMARK  221  A    between atoms: _530  and  _532
REMARK  222  A    between atoms: _532  and  _533
REMARK  223  A    between atoms: _532  and  _535
REMARK  224  A    between atoms: _535  and  _536
REMARK  225  A    between atoms: _541  and  _543
REMARK  226  A    between atoms: _543  and  _544
REMARK  227  A    between atoms: _543  and  _546
REMARK  228  A    between atoms: _546  and  _547
REMARK  229  A    between atoms: _550  and  _552
REMARK  230  A    between atoms: _552  and  _553
REMARK  231  A    between atoms: _552  and  _555
REMARK  232  A    between atoms: _555  and  _556
REMARK  233  A    between atoms: _559  and  _561
REMARK  234  A    between atoms: _561  and  _562
REMARK  235  A    between atoms: _564  and  _566
REMARK  236  A    between atoms: _566  and  _567
REMARK  237  A    between atoms: _566  and  _569
REMARK  238  A    between atoms: _569  and  _570
REMARK  239  A    between atoms: _570  and  _571
REMARK  240  A    between atoms: _571  and  _572
REMARK                            x       y       z     vdW  Elec       q    Type
REMARK                         _______ _______ _______ _____ _____    ______ ____
ROOT
ATOM      1  O   HOH     1      19.025  17.655  12.287  0.00  0.00    +0.000 OA
ENDROOT
TORSDOF 0
REMARK  Name = ../refined-set-2016/1ebw/1ebw_pocket.pdb
REMARK  240 active torsions:
REMARK  status: ('A' for Active; 'I' for Inactive)
REMARK    1  A    between atoms: _1  and  _3
REMARK    2  A    between atoms: _3  and  _4
REMARK    3  A    between atoms: _3  and  _6
REMARK    4  A    between atoms: _6  and  _7
REMARK    5  A    between atoms: _7  and  _8
REMARK    6  A    between atoms: _8  and  _9
REMARK    7  A    between atoms: _18  and  _20
REMARK    8  A    between atoms: _20  and  _21
REMARK    9  A    between atoms: _20  and  _23
REMARK   10  A    between atoms: _23  and  _24
REMARK   11  A    between atoms: _27  and  _29
REMARK   12  A    between atoms: _29  and  _30
REMARK   13  A    between atoms: _29  and  _32
REMARK   14  A    between atoms: _32  and  _33
REMARK   15  A    between atoms: _36  and  _38
REMARK   16  A    between atoms: _38  and  _39
REMARK   17  A    between atoms: _38  and  _41
REMARK   18  A    between atoms: _41  and  _42
REMARK   19  A    between atoms: _45  and  _47
REMARK   20  A    between atoms: _47  and  _48
REMARK   21  A    between atoms: _47  and  _50
REMARK   22  A    between atoms: _50  and  _51
REMARK   23  A    between atoms: _54  and  _56
REMARK   24  A    between atoms: _56  and  _57
REMARK   25  A    between atoms: _56  and  _59
REMARK   26  A    between atoms: _59  and  _60
REMARK   27  A    between atoms: _63  and  _65
REMARK   28  A    between atoms: _65  and  _66
REMARK   29  A    between atoms: _68  and  _70
REMARK   30  A    between atoms: _70  and  _71
REMARK   31  A    between atoms: _74  and  _76
REMARK   32  A    between atoms: _76  and  _77
REMARK   33  A    between atoms: _76  and  _79
REMARK   34  A    between atoms: _79  and  _80
REMARK   35  A    between atoms: _83  and  _85
REMARK   36  A    between atoms: _85  and  _86
REMARK   37  A    between atoms: _85  and  _88
REMARK   38  A    between atoms: _88  and  _89
REMARK   39  A    between atoms: _92  and  _94
REMARK   40  A    between atoms: _94  and  _95
REMARK   41  A    between atoms: _94  and  _97
REMARK   42  A    between atoms: _97  and  _98
REMARK   43  A    between atoms: _101  and  _103
REMARK   44  A    between atoms: _103  and  _104
REMARK   45  A    between atoms: _103  and  _106
REMARK   46  A    between atoms: _109  and  _111
REMARK   47  A    between atoms: _111  and  _112
REMARK   48  A    between atoms: _111  and  _114
REMARK   49  A    between atoms: _114  and  _115
REMARK   50  A    between atoms: _118  and  _120
REMARK   51  A    between atoms: _120  and  _121
REMARK   52  A    between atoms: _120  and  _123
REMARK   53  A    between atoms: _123  and  _124
REMARK   54  A    between atoms: _124  and  _125
REMARK   55  A    between atoms: _125  and  _126
REMARK   56  A    between atoms: _126  and  _127
REMARK   57  A    between atoms: _131  and  _133
REMARK   58  A    between atoms: _133  and  _134
REMARK   59  A    between atoms: _133  and  _136
REMARK   60  A    between atoms: _136  and  _137
REMARK   61  A    between atoms: _137  and  _138
REMARK   62  A    between atoms: _140  and  _142
REMARK   63  A    between atoms: _142  and  _143
REMARK   64  A    between atoms: _142  and  _145
REMARK   65  A    between atoms: _145  and  _146
REMARK   66  A    between atoms: _149  and  _151
REMARK   67  A    between atoms: _151  and  _152
REMARK   68  A    between atoms: _154  and  _156
REMARK   69  A    between atoms: _156  and  _157
REMARK   70  A    between atoms: _159  and  _161
REMARK   71  A    between atoms: _161  and  _162
REMARK   72  A    between atoms: _161  and  _164
REMARK   73  A    between atoms: _164  and  _165
REMARK   74  A    between atoms: _168  and  _170
REMARK   75  A    between atoms: _170  and  _171
REMARK   76  A    between atoms: _173  and  _175
REMARK   77  A    between atoms: _175  and  _176
REMARK   78  A    between atoms: _178  and  _180
REMARK   79  A    between atoms: _180  and  _181
REMARK   80  A    between atoms: _180  and  _183
REMARK   81  A    between atoms: _183  and  _184
REMARK   82  A    between atoms: _190  and  _192
REMARK   83  A    between atoms: _192  and  _193
REMARK   84  A    between atoms: _192  and  _195
REMARK   85  A    between atoms: _195  and  _196
REMARK   86  A    between atoms: _199  and  _201
REMARK   87  A    between atoms: _201  and  _202
REMARK   88  A    between atoms: _201  and  _204
REMARK   89  A    between atoms: _207  and  _209
REMARK   90  A    between atoms: _209  and  _210
REMARK   91  A    between atoms: _209  and  _212
REMARK   92  A    between atoms: _212  and  _213
REMARK   93  A    between atoms: _216  and  _218
REMARK   94  A    between atoms: _218  and  _219
REMARK   95  A    between atoms: _218  and  _221
REMARK   96  A    between atoms: _221  and  _222
REMARK   97  A    between atoms: _226  and  _227
REMARK   98  A    between atoms: _232  and  _234
REMARK   99  A    between atoms: _234  and  _235
REMARK  100  A    between atoms: _234  and  _237
REMARK  101  A    between atoms: _240  and  _242
REMARK  102  A    between atoms: _242  and  _243
REMARK  103  A    between atoms: _242  and  _245
REMARK  104  A    between atoms: _245  and  _246
REMARK  105  A    between atoms: _251  and  _253
REMARK  106  A    between atoms: _253  and  _254
REMARK  107  A    between atoms: _253  and  _256
REMARK  108  A    between atoms: _256  and  _257
REMARK  109  A    between atoms: _260  and  _262
REMARK  110  A    between atoms: _262  and  _263
REMARK  111  A    between atoms: _262  and  _265
REMARK  112  A    between atoms: _265  and  _266
REMARK  113  A    between atoms: _269  and  _271
REMARK  114  A    between atoms: _271  and  _272
REMARK  115  A    between atoms: _274  and  _276
REMARK  116  A    between atoms: _276  and  _277
REMARK  117  A    between atoms: _276  and  _279
REMARK  118  A    between atoms: _279  and  _280
REMARK  119  A    between atoms: _280  and  _281
REMARK  120  A    between atoms: _281  and  _282
REMARK  121  A    between atoms: _291  and  _293
REMARK  122  A    between atoms: _293  and  _294
REMARK  123  A    between atoms: _293  and  _296
REMARK  124  A    between atoms: _296  and  _297
REMARK  125  A    between atoms: _297  and  _298
REMARK  126  A    between atoms: _298  and  _299
REMARK  127  A    between atoms: _308  and  _310
REMARK  128  A    between atoms: _310  and  _311
REMARK  129  A    between atoms: _310  and  _313
REMARK  130  A    between atoms: _313  and  _314
REMARK  131  A    between atoms: _317  and  _319
REMARK  132  A    between atoms: _319  and  _320
REMARK  133  A    between atoms: _319  and  _322
REMARK  134  A    between atoms: _322  and  _323
REMARK  135  A    between atoms: _326  and  _328
REMARK  136  A    between atoms: _328  and  _329
REMARK  137  A    between atoms: _328  and  _331
REMARK  138  A    between atoms: _331  and  _332
REMARK  139  A    between atoms: _335  and  _337
REMARK  140  A    between atoms: _337  and  _338
REMARK  141  A    between atoms: _337  and  _340
REMARK  142  A    between atoms: _340  and  _341
REMARK  143  A    between atoms: _344  and  _346
REMARK  144  A    between atoms: _346  and  _347
REMARK  145  A    between atoms: _346  and  _349
REMARK  146  A    between atoms: _349  and  _350
REMARK  147  A    between atoms: _353  and  _355
REMARK  148  A    between atoms: _355  and  _356
REMARK  149  A    between atoms: _358  and  _360
REMARK  150  A    between atoms: _360  and  _361
REMARK  151  A    between atoms: _364  and  _366
REMARK  152  A    between atoms: _366  and  _367
REMARK  153  A    between atoms: _366  and  _369
REMARK  154  A    between atoms: _369  and  _370
REMARK  155  A    between atoms: _373  and  _375
REMARK  156  A    between atoms: _375  and  _376
REMARK  157  A    between atoms: _375  and  _378
REMARK  158  A    between atoms: _378  and  _379
REMARK  159  A    between atoms: _382  and  _384
REMARK  160  A    between atoms: _384  and  _385
REMARK  161  A    between atoms: _384  and  _387
REMARK  162  A    between atoms: _387  and  _388
REMARK  163  A    between atoms: _391  and  _393
REMARK  164  A    between atoms: _393  and  _394
REMARK  165  A    between atoms: _393  and  _396
REMARK  166  A    between atoms: _399  and  _401
REMARK  167  A    between atoms: _401  and  _402
REMARK  168  A    between atoms: _401  and  _404
REMARK  169  A    between atoms: _404  and  _405
REMARK  170  A    between atoms: _408  and  _410
REMARK  171  A    between atoms: _410  and  _411
REMARK  172  A    between atoms: _410  and  _413
REMARK  173  A    between atoms: _413  and  _414
REMARK  174  A    between atoms: _414  and  _415
REMARK  175  A    between atoms: _415  and  _416
REMARK  176  A    between atoms: _416  and  _417
REMARK  177  A    between atoms: _421  and  _423
REMARK  178  A    between atoms: _423  and  _424
REMARK  179  A    between atoms: _423  and  _426
REMARK  180  A    between atoms: _426  and  _427
REMARK  181  A    between atoms: _427  and  _428
REMARK  182  A    between atoms: _430  and  _432
REMARK  183  A    between atoms: _432  and  _433
REMARK  184  A    between atoms: _432  and  _435
REMARK  185  A    between atoms: _435  and  _436
REMARK  186  A    between atoms: _439  and  _441
REMARK  187  A    between atoms: _441  and  _442
REMARK  188  A    between atoms: _444  and  _446
REMARK  189  A    between atoms: _446  and  _447
REMARK  190  A    between atoms: _449  and  _451
REMARK  191  A    between atoms: _451  and  _452
REMARK  192  A    between atoms: _451  and  _454
REMARK  193  A    between atoms: _454  and  _455
REMARK  194  A    between atoms: _458  and  _460
REMARK  195  A    between atoms: _460  and  _461
REMARK  196  A    between atoms: _463  and  _465
REMARK  197  A    between atoms: _465  and  _466
REMARK  198  A    between atoms: _468  and  _470
REMARK  199  A    between atoms: _470  and  _471
REMARK  200  A    between atoms: _470  and  _473
REMARK  201  A    between atoms: _473  and  _474
REMARK  202  A    between atoms: _480  and  _482
REMARK  203  A    between atoms: _482  and  _483
REMARK  204  A    between atoms: _482  and  _485
REMARK  205  A    between atoms: _485  and  _486
REMARK  206  A    between atoms: _489  and  _491
REMARK  207  A    between atoms: _491  and  _492
REMARK  208  A    between atoms: _491  and  _494
REMARK  209  A    between atoms: _497  and  _499
REMARK  210  A    between atoms: _499  and  _500
REMARK  211  A    between atoms: _499  and  _502
REMARK  212  A    between atoms: _502  and  _503
REMARK  213  A    between atoms: _506  and  _508
REMARK  214  A    between atoms: _508  and  _509
REMARK  215  A    between atoms: _508  and  _511
REMARK  216  A    between atoms: _511  and  _512
REMARK  217  A    between atoms: _516  and  _517
REMARK  218  A    between atoms: _522  and  _524
REMARK  219  A    between atoms: _524  and  _525
REMARK  220  A    between atoms: _524  and  _527
REMARK  221  A    between atoms: _530  and  _532
REMARK  222  A    between atoms: _532  and  _533
REMARK  223  A    between atoms: _532  and  _535
REMARK  224  A    between atoms: _535  and  _536
REMARK  225  A    between atoms: _541  and  _543
REMARK  226  A    between atoms: _543  and  _544
REMARK  227  A    between atoms: _543  and  _546
REMARK  228  A    between atoms: _546  and  _547
REMARK  229  A    between atoms: _550  and  _552
REMARK  230  A    between atoms: _552  and  _553
REMARK  231  A    between atoms: _552  and  _555
REMARK  232  A    between atoms: _555  and  _556
REMARK  233  A    between atoms: _559  and  _561
REMARK  234  A    between atoms: _561  and  _562
REMARK  235  A    between atoms: _564  and  _566
REMARK  236  A    between atoms: _566  and  _567
REMARK  237  A    between atoms: _566  and  _569
REMARK  238  A    between atoms: _569  and  _570
REMARK  239  A    between atoms: _570  and  _571
REMARK  240  A    between atoms: _571  and  _572
REMARK                            x       y       z     vdW  Elec       q    Type
REMARK                         _______ _______ _______ _____ _____    ______ ____
ROOT
ATOM      1  O   HOH     1      16.725  16.031  11.391  0.00  0.00    +0.000 OA
ENDROOT
TORSDOF 0
REMARK  Name = ../refined-set-2016/1ebw/1ebw_pocket.pdb
REMARK  240 active torsions:
REMARK  status: ('A' for Active; 'I' for Inactive)
REMARK    1  A    between atoms: _1  and  _3
REMARK    2  A    between atoms: _3  and  _4
REMARK    3  A    between atoms: _3  and  _6
REMARK    4  A    between atoms: _6  and  _7
REMARK    5  A    between atoms: _7  and  _8
REMARK    6  A    between atoms: _8  and  _9
REMARK    7  A    between atoms: _18  and  _20
REMARK    8  A    between atoms: _20  and  _21
REMARK    9  A    between atoms: _20  and  _23
REMARK   10  A    between atoms: _23  and  _24
REMARK   11  A    between atoms: _27  and  _29
REMARK   12  A    between atoms: _29  and  _30
REMARK   13  A    between atoms: _29  and  _32
REMARK   14  A    between atoms: _32  and  _33
REMARK   15  A    between atoms: _36  and  _38
REMARK   16  A    between atoms: _38  and  _39
REMARK   17  A    between atoms: _38  and  _41
REMARK   18  A    between atoms: _41  and  _42
REMARK   19  A    between atoms: _45  and  _47
REMARK   20  A    between atoms: _47  and  _48
REMARK   21  A    between atoms: _47  and  _50
REMARK   22  A    between atoms: _50  and  _51
REMARK   23  A    between atoms: _54  and  _56
REMARK   24  A    between atoms: _56  and  _57
REMARK   25  A    between atoms: _56  and  _59
REMARK   26  A    between atoms: _59  and  _60
REMARK   27  A    between atoms: _63  and  _65
REMARK   28  A    between atoms: _65  and  _66
REMARK   29  A    between atoms: _68  and  _70
REMARK   30  A    between atoms: _70  and  _71
REMARK   31  A    between atoms: _74  and  _76
REMARK   32  A    between atoms: _76  and  _77
REMARK   33  A    between atoms: _76  and  _79
REMARK   34  A    between atoms: _79  and  _80
REMARK   35  A    between atoms: _83  and  _85
REMARK   36  A    between atoms: _85  and  _86
REMARK   37  A    between atoms: _85  and  _88
REMARK   38  A    between atoms: _88  and  _89
REMARK   39  A    between atoms: _92  and  _94
REMARK   40  A    between atoms: _94  and  _95
REMARK   41  A    between atoms: _94  and  _97
REMARK   42  A    between atoms: _97  and  _98
REMARK   43  A    between atoms: _101  and  _103
REMARK   44  A    between atoms: _103  and  _104
REMARK   45  A    between atoms: _103  and  _106
REMARK   46  A    between atoms: _109  and  _111
REMARK   47  A    between atoms: _111  and  _112
REMARK   48  A    between atoms: _111  and  _114
REMARK   49  A    between atoms: _114  and  _115
REMARK   50  A    between atoms: _118  and  _120
REMARK   51  A    between atoms: _120  and  _121
REMARK   52  A    between atoms: _120  and  _123
REMARK   53  A    between atoms: _123  and  _124
REMARK   54  A    between atoms: _124  and  _125
REMARK   55  A    between atoms: _125  and  _126
REMARK   56  A    between atoms: _126  and  _127
REMARK   57  A    between atoms: _131  and  _133
REMARK   58  A    between atoms: _133  and  _134
REMARK   59  A    between atoms: _133  and  _136
REMARK   60  A    between atoms: _136  and  _137
REMARK   61  A    between atoms: _137  and  _138
REMARK   62  A    between atoms: _140  and  _142
REMARK   63  A    between atoms: _142  and  _143
REMARK   64  A    between atoms: _142  and  _145
REMARK   65  A    between atoms: _145  and  _146
REMARK   66  A    between atoms: _149  and  _151
REMARK   67  A    between atoms: _151  and  _152
REMARK   68  A    between atoms: _154  and  _156
REMARK   69  A    between atoms: _156  and  _157
REMARK   70  A    between atoms: _159  and  _161
REMARK   71  A    between atoms: _161  and  _162
REMARK   72  A    between atoms: _161  and  _164
REMARK   73  A    between atoms: _164  and  _165
REMARK   74  A    between atoms: _168  and  _170
REMARK   75  A    between atoms: _170  and  _171
REMARK   76  A    between atoms: _173  and  _175
REMARK   77  A    between atoms: _175  and  _176
REMARK   78  A    between atoms: _178  and  _180
REMARK   79  A    between atoms: _180  and  _181
REMARK   80  A    between atoms: _180  and  _183
REMARK   81  A    between atoms: _183  and  _184
REMARK   82  A    between atoms: _190  and  _192
REMARK   83  A    between atoms: _192  and  _193
REMARK   84  A    between atoms: _192  and  _195
REMARK   85  A    between atoms: _195  and  _196
REMARK   86  A    between atoms: _199  and  _201
REMARK   87  A    between atoms: _201  and  _202
REMARK   88  A    between atoms: _201  and  _204
REMARK   89  A    between atoms: _207  and  _209
REMARK   90  A    between atoms: _209  and  _210
REMARK   91  A    between atoms: _209  and  _212
REMARK   92  A    between atoms: _212  and  _213
REMARK   93  A    between atoms: _216  and  _218
REMARK   94  A    between atoms: _218  and  _219
REMARK   95  A    between atoms: _218  and  _221
REMARK   96  A    between atoms: _221  and  _222
REMARK   97  A    between atoms: _226  and  _227
REMARK   98  A    between atoms: _232  and  _234
REMARK   99  A    between atoms: _234  and  _235
REMARK  100  A    between atoms: _234  and  _237
REMARK  101  A    between atoms: _240  and  _242
REMARK  102  A    between atoms: _242  and  _243
REMARK  103  A    between atoms: _242  and  _245
REMARK  104  A    between atoms: _245  and  _246
REMARK  105  A    between atoms: _251  and  _253
REMARK  106  A    between atoms: _253  and  _254
REMARK  107  A    between atoms: _253  and  _256
REMARK  108  A    between atoms: _256  and  _257
REMARK  109  A    between atoms: _260  and  _262
REMARK  110  A    between atoms: _262  and  _263
REMARK  111  A    between atoms: _262  and  _265
REMARK  112  A    between atoms: _265  and  _266
REMARK  113  A    between atoms: _269  and  _271
REMARK  114  A    between atoms: _271  and  _272
REMARK  115  A    between atoms: _274  and  _276
REMARK  116  A    between atoms: _276  and  _277
REMARK  117  A    between atoms: _276  and  _279
REMARK  118  A    between atoms: _279  and  _280
REMARK  119  A    between atoms: _280  and  _281
REMARK  120  A    between atoms: _281  and  _282
REMARK  121  A    between atoms: _291  and  _293
REMARK  122  A    between atoms: _293  and  _294
REMARK  123  A    between atoms: _293  and  _296
REMARK  124  A    between atoms: _296  and  _297
REMARK  125  A    between atoms: _297  and  _298
REMARK  126  A    between atoms: _298  and  _299
REMARK  127  A    between atoms: _308  and  _310
REMARK  128  A    between atoms: _310  and  _311
REMARK  129  A    between atoms: _310  and  _313
REMARK  130  A    between atoms: _313  and  _314
REMARK  131  A    between atoms: _317  and  _319
REMARK  132  A    between atoms: _319  and  _320
REMARK  133  A    between atoms: _319  and  _322
REMARK  134  A    between atoms: _322  and  _323
REMARK  135  A    between atoms: _326  and  _328
REMARK  136  A    between atoms: _328  and  _329
REMARK  137  A    between atoms: _328  and  _331
REMARK  138  A    between atoms: _331  and  _332
REMARK  139  A    between atoms: _335  and  _337
REMARK  140  A    between atoms: _337  and  _338
REMARK  141  A    between atoms: _337  and  _340
REMARK  142  A    between atoms: _340  and  _341
REMARK  143  A    between atoms: _344  and  _346
REMARK  144  A    between atoms: _346  and  _347
REMARK  145  A    between atoms: _346  and  _349
REMARK  146  A    between atoms: _349  and  _350
REMARK  147  A    between atoms: _353  and  _355
REMARK  148  A    between atoms: _355  and  _356
REMARK  149  A    between atoms: _358  and  _360
REMARK  150  A    between atoms: _360  and  _361
REMARK  151  A    between atoms: _364  and  _366
REMARK  152  A    between atoms: _366  and  _367
REMARK  153  A    between atoms: _366  and  _369
REMARK  154  A    between atoms: _369  and  _370
REMARK  155  A    between atoms: _373  and  _375
REMARK  156  A    between atoms: _375  and  _376
REMARK  157  A    between atoms: _375  and  _378
REMARK  158  A    between atoms: _378  and  _379
REMARK  159  A    between atoms: _382  and  _384
REMARK  160  A    between atoms: _384  and  _385
REMARK  161  A    between atoms: _384  and  _387
REMARK  162  A    between atoms: _387  and  _388
REMARK  163  A    between atoms: _391  and  _393
REMARK  164  A    between atoms: _393  and  _394
REMARK  165  A    between atoms: _393  and  _396
REMARK  166  A    between atoms: _399  and  _401
REMARK  167  A    between atoms: _401  and  _402
REMARK  168  A    between atoms: _401  and  _404
REMARK  169  A    between atoms: _404  and  _405
REMARK  170  A    between atoms: _408  and  _410
REMARK  171  A    between atoms: _410  and  _411
REMARK  172  A    between atoms: _410  and  _413
REMARK  173  A    between atoms: _413  and  _414
REMARK  174  A    between atoms: _414  and  _415
REMARK  175  A    between atoms: _415  and  _416
REMARK  176  A    between atoms: _416  and  _417
REMARK  177  A    between atoms: _421  and  _423
REMARK  178  A    between atoms: _423  and  _424
REMARK  179  A    between atoms: _423  and  _426
REMARK  180  A    between atoms: _426  and  _427
REMARK  181  A    between atoms: _427  and  _428
REMARK  182  A    between atoms: _430  and  _432
REMARK  183  A    between atoms: _432  and  _433
REMARK  184  A    between atoms: _432  and  _435
REMARK  185  A    between atoms: _435  and  _436
REMARK  186  A    between atoms: _439  and  _441
REMARK  187  A    between atoms: _441  and  _442
REMARK  188  A    between atoms: _444  and  _446
REMARK  189  A    between atoms: _446  and  _447
REMARK  190  A    between atoms: _449  and  _451
REMARK  191  A    between atoms: _451  and  _452
REMARK  192  A    between atoms: _451  and  _454
REMARK  193  A    between atoms: _454  and  _455
REMARK  194  A    between atoms: _458  and  _460
REMARK  195  A    between atoms: _460  and  _461
REMARK  196  A    between atoms: _463  and  _465
REMARK  197  A    between atoms: _465  and  _466
REMARK  198  A    between atoms: _468  and  _470
REMARK  199  A    between atoms: _470  and  _471
REMARK  200  A    between atoms: _470  and  _473
REMARK  201  A    between atoms: _473  and  _474
REMARK  202  A    between atoms: _480  and  _482
REMARK  203  A    between atoms: _482  and  _483
REMARK  204  A    between atoms: _482  and  _485
REMARK  205  A    between atoms: _485  and  _486
REMARK  206  A    between atoms: _489  and  _491
REMARK  207  A    between atoms: _491  and  _492
REMARK  208  A    between atoms: _491  and  _494
REMARK  209  A    between atoms: _497  and  _499
REMARK  210  A    between atoms: _499  and  _500
REMARK  211  A    between atoms: _499  and  _502
REMARK  212  A    between atoms: _502  and  _503
REMARK  213  A    between atoms: _506  and  _508
REMARK  214  A    between atoms: _508  and  _509
REMARK  215  A    between atoms: _508  and  _511
REMARK  216  A    between atoms: _511  and  _512
REMARK  217  A    between atoms: _516  and  _517
REMARK  218  A    between atoms: _522  and  _524
REMARK  219  A    between atoms: _524  and  _525
REMARK  220  A    between atoms: _524  and  _527
REMARK  221  A    between atoms: _530  and  _532
REMARK  222  A    between atoms: _532  and  _533
REMARK  223  A    between atoms: _532  and  _535
REMARK  224  A    between atoms: _535  and  _536
REMARK  225  A    between atoms: _541  and  _543
REMARK  226  A    between atoms: _543  and  _544
REMARK  227  A    between atoms: _543  and  _546
REMARK  228  A    between atoms: _546  and  _547
REMARK  229  A    between atoms: _550  and  _552
REMARK  230  A    between atoms: _552  and  _553
REMARK  231  A    between atoms: _552  and  _555
REMARK  232  A    between atoms: _555  and  _556
REMARK  233  A    between atoms: _559  and  _561
REMARK  234  A    between atoms: _561  and  _562
REMARK  235  A    between atoms: _564  and  _566
REMARK  236  A    between atoms: _566  and  _567
REMARK  237  A    between atoms: _566  and  _569
REMARK  238  A    between atoms: _569  and  _570
REMARK  239  A    between atoms: _570  and  _571
REMARK  240  A    between atoms: _571  and  _572
REMARK                            x       y       z     vdW  Elec       q    Type
REMARK                         _______ _______ _______ _____ _____    ______ ____
ROOT
ATOM      1  O   HOH     1       6.238  28.422  -3.214  0.00  0.00    +0.000 OA
ENDROOT
TORSDOF 0
REMARK  Name = ../refined-set-2016/1ebw/1ebw_pocket.pdb
REMARK  240 active torsions:
REMARK  status: ('A' for Active; 'I' for Inactive)
REMARK    1  A    between atoms: _1  and  _3
REMARK    2  A    between atoms: _3  and  _4
REMARK    3  A    between atoms: _3  and  _6
REMARK    4  A    between atoms: _6  and  _7
REMARK    5  A    between atoms: _7  and  _8
REMARK    6  A    between atoms: _8  and  _9
REMARK    7  A    between atoms: _18  and  _20
REMARK    8  A    between atoms: _20  and  _21
REMARK    9  A    between atoms: _20  and  _23
REMARK   10  A    between atoms: _23  and  _24
REMARK   11  A    between atoms: _27  and  _29
REMARK   12  A    between atoms: _29  and  _30
REMARK   13  A    between atoms: _29  and  _32
REMARK   14  A    between atoms: _32  and  _33
REMARK   15  A    between atoms: _36  and  _38
REMARK   16  A    between atoms: _38  and  _39
REMARK   17  A    between atoms: _38  and  _41
REMARK   18  A    between atoms: _41  and  _42
REMARK   19  A    between atoms: _45  and  _47
REMARK   20  A    between atoms: _47  and  _48
REMARK   21  A    between atoms: _47  and  _50
REMARK   22  A    between atoms: _50  and  _51
REMARK   23  A    between atoms: _54  and  _56
REMARK   24  A    between atoms: _56  and  _57
REMARK   25  A    between atoms: _56  and  _59
REMARK   26  A    between atoms: _59  and  _60
REMARK   27  A    between atoms: _63  and  _65
REMARK   28  A    between atoms: _65  and  _66
REMARK   29  A    between atoms: _68  and  _70
REMARK   30  A    between atoms: _70  and  _71
REMARK   31  A    between atoms: _74  and  _76
REMARK   32  A    between atoms: _76  and  _77
REMARK   33  A    between atoms: _76  and  _79
REMARK   34  A    between atoms: _79  and  _80
REMARK   35  A    between atoms: _83  and  _85
REMARK   36  A    between atoms: _85  and  _86
REMARK   37  A    between atoms: _85  and  _88
REMARK   38  A    between atoms: _88  and  _89
REMARK   39  A    between atoms: _92  and  _94
REMARK   40  A    between atoms: _94  and  _95
REMARK   41  A    between atoms: _94  and  _97
REMARK   42  A    between atoms: _97  and  _98
REMARK   43  A    between atoms: _101  and  _103
REMARK   44  A    between atoms: _103  and  _104
REMARK   45  A    between atoms: _103  and  _106
REMARK   46  A    between atoms: _109  and  _111
REMARK   47  A    between atoms: _111  and  _112
REMARK   48  A    between atoms: _111  and  _114
REMARK   49  A    between atoms: _114  and  _115
REMARK   50  A    between atoms: _118  and  _120
REMARK   51  A    between atoms: _120  and  _121
REMARK   52  A    between atoms: _120  and  _123
REMARK   53  A    between atoms: _123  and  _124
REMARK   54  A    between atoms: _124  and  _125
REMARK   55  A    between atoms: _125  and  _126
REMARK   56  A    between atoms: _126  and  _127
REMARK   57  A    between atoms: _131  and  _133
REMARK   58  A    between atoms: _133  and  _134
REMARK   59  A    between atoms: _133  and  _136
REMARK   60  A    between atoms: _136  and  _137
REMARK   61  A    between atoms: _137  and  _138
REMARK   62  A    between atoms: _140  and  _142
REMARK   63  A    between atoms: _142  and  _143
REMARK   64  A    between atoms: _142  and  _145
REMARK   65  A    between atoms: _145  and  _146
REMARK   66  A    between atoms: _149  and  _151
REMARK   67  A    between atoms: _151  and  _152
REMARK   68  A    between atoms: _154  and  _156
REMARK   69  A    between atoms: _156  and  _157
REMARK   70  A    between atoms: _159  and  _161
REMARK   71  A    between atoms: _161  and  _162
REMARK   72  A    between atoms: _161  and  _164
REMARK   73  A    between atoms: _164  and  _165
REMARK   74  A    between atoms: _168  and  _170
REMARK   75  A    between atoms: _170  and  _171
REMARK   76  A    between atoms: _173  and  _175
REMARK   77  A    between atoms: _175  and  _176
REMARK   78  A    between atoms: _178  and  _180
REMARK   79  A    between atoms: _180  and  _181
REMARK   80  A    between atoms: _180  and  _183
REMARK   81  A    between atoms: _183  and  _184
REMARK   82  A    between atoms: _190  and  _192
REMARK   83  A    between atoms: _192  and  _193
REMARK   84  A    between atoms: _192  and  _195
REMARK   85  A    between atoms: _195  and  _196
REMARK   86  A    between atoms: _199  and  _201
REMARK   87  A    between atoms: _201  and  _202
REMARK   88  A    between atoms: _201  and  _204
REMARK   89  A    between atoms: _207  and  _209
REMARK   90  A    between atoms: _209  and  _210
REMARK   91  A    between atoms: _209  and  _212
REMARK   92  A    between atoms: _212  and  _213
REMARK   93  A    between atoms: _216  and  _218
REMARK   94  A    between atoms: _218  and  _219
REMARK   95  A    between atoms: _218  and  _221
REMARK   96  A    between atoms: _221  and  _222
REMARK   97  A    between atoms: _226  and  _227
REMARK   98  A    between atoms: _232  and  _234
REMARK   99  A    between atoms: _234  and  _235
REMARK  100  A    between atoms: _234  and  _237
REMARK  101  A    between atoms: _240  and  _242
REMARK  102  A    between atoms: _242  and  _243
REMARK  103  A    between atoms: _242  and  _245
REMARK  104  A    between atoms: _245  and  _246
REMARK  105  A    between atoms: _251  and  _253
REMARK  106  A    between atoms: _253  and  _254
REMARK  107  A    between atoms: _253  and  _256
REMARK  108  A    between atoms: _256  and  _257
REMARK  109  A    between atoms: _260  and  _262
REMARK  110  A    between atoms: _262  and  _263
REMARK  111  A    between atoms: _262  and  _265
REMARK  112  A    between atoms: _265  and  _266
REMARK  113  A    between atoms: _269  and  _271
REMARK  114  A    between atoms: _271  and  _272
REMARK  115  A    between atoms: _274  and  _276
REMARK  116  A    between atoms: _276  and  _277
REMARK  117  A    between atoms: _276  and  _279
REMARK  118  A    between atoms: _279  and  _280
REMARK  119  A    between atoms: _280  and  _281
REMARK  120  A    between atoms: _281  and  _282
REMARK  121  A    between atoms: _291  and  _293
REMARK  122  A    between atoms: _293  and  _294
REMARK  123  A    between atoms: _293  and  _296
REMARK  124  A    between atoms: _296  and  _297
REMARK  125  A    between atoms: _297  and  _298
REMARK  126  A    between atoms: _298  and  _299
REMARK  127  A    between atoms: _308  and  _310
REMARK  128  A    between atoms: _310  and  _311
REMARK  129  A    between atoms: _310  and  _313
REMARK  130  A    between atoms: _313  and  _314
REMARK  131  A    between atoms: _317  and  _319
REMARK  132  A    between atoms: _319  and  _320
REMARK  133  A    between atoms: _319  and  _322
REMARK  134  A    between atoms: _322  and  _323
REMARK  135  A    between atoms: _326  and  _328
REMARK  136  A    between atoms: _328  and  _329
REMARK  137  A    between atoms: _328  and  _331
REMARK  138  A    between atoms: _331  and  _332
REMARK  139  A    between atoms: _335  and  _337
REMARK  140  A    between atoms: _337  and  _338
REMARK  141  A    between atoms: _337  and  _340
REMARK  142  A    between atoms: _340  and  _341
REMARK  143  A    between atoms: _344  and  _346
REMARK  144  A    between atoms: _346  and  _347
REMARK  145  A    between atoms: _346  and  _349
REMARK  146  A    between atoms: _349  and  _350
REMARK  147  A    between atoms: _353  and  _355
REMARK  148  A    between atoms: _355  and  _356
REMARK  149  A    between atoms: _358  and  _360
REMARK  150  A    between atoms: _360  and  _361
REMARK  151  A    between atoms: _364  and  _366
REMARK  152  A    between atoms: _366  and  _367
REMARK  153  A    between atoms: _366  and  _369
REMARK  154  A    between atoms: _369  and  _370
REMARK  155  A    between atoms: _373  and  _375
REMARK  156  A    between atoms: _375  and  _376
REMARK  157  A    between atoms: _375  and  _378
REMARK  158  A    between atoms: _378  and  _379
REMARK  159  A    between atoms: _382  and  _384
REMARK  160  A    between atoms: _384  and  _385
REMARK  161  A    between atoms: _384  and  _387
REMARK  162  A    between atoms: _387  and  _388
REMARK  163  A    between atoms: _391  and  _393
REMARK  164  A    between atoms: _393  and  _394
REMARK  165  A    between atoms: _393  and  _396
REMARK  166  A    between atoms: _399  and  _401
REMARK  167  A    between atoms: _401  and  _402
REMARK  168  A    between atoms: _401  and  _404
REMARK  169  A    between atoms: _404  and  _405
REMARK  170  A    between atoms: _408  and  _410
REMARK  171  A    between atoms: _410  and  _411
REMARK  172  A    between atoms: _410  and  _413
REMARK  173  A    between atoms: _413  and  _414
REMARK  174  A    between atoms: _414  and  _415
REMARK  175  A    between atoms: _415  and  _416
REMARK  176  A    between atoms: _416  and  _417
REMARK  177  A    between atoms: _421  and  _423
REMARK  178  A    between atoms: _423  and  _424
REMARK  179  A    between atoms: _423  and  _426
REMARK  180  A    between atoms: _426  and  _427
REMARK  181  A    between atoms: _427  and  _428
REMARK  182  A    between atoms: _430  and  _432
REMARK  183  A    between atoms: _432  and  _433
REMARK  184  A    between atoms: _432  and  _435
REMARK  185  A    between atoms: _435  and  _436
REMARK  186  A    between atoms: _439  and  _441
REMARK  187  A    between atoms: _441  and  _442
REMARK  188  A    between atoms: _444  and  _446
REMARK  189  A    between atoms: _446  and  _447
REMARK  190  A    between atoms: _449  and  _451
REMARK  191  A    between atoms: _451  and  _452
REMARK  192  A    between atoms: _451  and  _454
REMARK  193  A    between atoms: _454  and  _455
REMARK  194  A    between atoms: _458  and  _460
REMARK  195  A    between atoms: _460  and  _461
REMARK  196  A    between atoms: _463  and  _465
REMARK  197  A    between atoms: _465  and  _466
REMARK  198  A    between atoms: _468  and  _470
REMARK  199  A    between atoms: _470  and  _471
REMARK  200  A    between atoms: _470  and  _473
REMARK  201  A    between atoms: _473  and  _474
REMARK  202  A    between atoms: _480  and  _482
REMARK  203  A    between atoms: _482  and  _483
REMARK  204  A    between atoms: _482  and  _485
REMARK  205  A    between atoms: _485  and  _486
REMARK  206  A    between atoms: _489  and  _491
REMARK  207  A    between atoms: _491  and  _492
REMARK  208  A    between atoms: _491  and  _494
REMARK  209  A    between atoms: _497  and  _499
REMARK  210  A    between atoms: _499  and  _500
REMARK  211  A    between atoms: _499  and  _502
REMARK  212  A    between atoms: _502  and  _503
REMARK  213  A    between atoms: _506  and  _508
REMARK  214  A    between atoms: _508  and  _509
REMARK  215  A    between atoms: _508  and  _511
REMARK  216  A    between atoms: _511  and  _512
REMARK  217  A    between atoms: _516  and  _517
REMARK  218  A    between atoms: _522  and  _524
REMARK  219  A    between atoms: _524  and  _525
REMARK  220  A    between atoms: _524  and  _527
REMARK  221  A    between atoms: _530  and  _532
REMARK  222  A    between atoms: _532  and  _533
REMARK  223  A    between atoms: _532  and  _535
REMARK  224  A    between atoms: _535  and  _536
REMARK  225  A    between atoms: _541  and  _543
REMARK  226  A    between atoms: _543  and  _544
REMARK  227  A    between atoms: _543  and  _546
REMARK  228  A    between atoms: _546  and  _547
REMARK  229  A    between atoms: _550  and  _552
REMARK  230  A    between atoms: _552  and  _553
REMARK  231  A    between atoms: _552  and  _555
REMARK  232  A    between atoms: _555  and  _556
REMARK  233  A    between atoms: _559  and  _561
REMARK  234  A    between atoms: _561  and  _562
REMARK  235  A    between atoms: _564  and  _566
REMARK  236  A    between atoms: _566  and  _567
REMARK  237  A    between atoms: _566  and  _569
REMARK  238  A    between atoms: _569  and  _570
REMARK  239  A    between atoms: _570  and  _571
REMARK  240  A    between atoms: _571  and  _572
REMARK                            x       y       z     vdW  Elec       q    Type
REMARK                         _______ _______ _______ _____ _____    ______ ____
ROOT
ATOM      1  O   HOH     1      20.358  16.019  -3.665  0.00  0.00    +0.000 OA
ENDROOT
TORSDOF 0
REMARK  Name = ../refined-set-2016/1ebw/1ebw_pocket.pdb
REMARK  240 active torsions:
REMARK  status: ('A' for Active; 'I' for Inactive)
REMARK    1  A    between atoms: _1  and  _3
REMARK    2  A    between atoms: _3  and  _4
REMARK    3  A    between atoms: _3  and  _6
REMARK    4  A    between atoms: _6  and  _7
REMARK    5  A    between atoms: _7  and  _8
REMARK    6  A    between atoms: _8  and  _9
REMARK    7  A    between atoms: _18  and  _20
REMARK    8  A    between atoms: _20  and  _21
REMARK    9  A    between atoms: _20  and  _23
REMARK   10  A    between atoms: _23  and  _24
REMARK   11  A    between atoms: _27  and  _29
REMARK   12  A    between atoms: _29  and  _30
REMARK   13  A    between atoms: _29  and  _32
REMARK   14  A    between atoms: _32  and  _33
REMARK   15  A    between atoms: _36  and  _38
REMARK   16  A    between atoms: _38  and  _39
REMARK   17  A    between atoms: _38  and  _41
REMARK   18  A    between atoms: _41  and  _42
REMARK   19  A    between atoms: _45  and  _47
REMARK   20  A    between atoms: _47  and  _48
REMARK   21  A    between atoms: _47  and  _50
REMARK   22  A    between atoms: _50  and  _51
REMARK   23  A    between atoms: _54  and  _56
REMARK   24  A    between atoms: _56  and  _57
REMARK   25  A    between atoms: _56  and  _59
REMARK   26  A    between atoms: _59  and  _60
REMARK   27  A    between atoms: _63  and  _65
REMARK   28  A    between atoms: _65  and  _66
REMARK   29  A    between atoms: _68  and  _70
REMARK   30  A    between atoms: _70  and  _71
REMARK   31  A    between atoms: _74  and  _76
REMARK   32  A    between atoms: _76  and  _77
REMARK   33  A    between atoms: _76  and  _79
REMARK   34  A    between atoms: _79  and  _80
REMARK   35  A    between atoms: _83  and  _85
REMARK   36  A    between atoms: _85  and  _86
REMARK   37  A    between atoms: _85  and  _88
REMARK   38  A    between atoms: _88  and  _89
REMARK   39  A    between atoms: _92  and  _94
REMARK   40  A    between atoms: _94  and  _95
REMARK   41  A    between atoms: _94  and  _97
REMARK   42  A    between atoms: _97  and  _98
REMARK   43  A    between atoms: _101  and  _103
REMARK   44  A    between atoms: _103  and  _104
REMARK   45  A    between atoms: _103  and  _106
REMARK   46  A    between atoms: _109  and  _111
REMARK   47  A    between atoms: _111  and  _112
REMARK   48  A    between atoms: _111  and  _114
REMARK   49  A    between atoms: _114  and  _115
REMARK   50  A    between atoms: _118  and  _120
REMARK   51  A    between atoms: _120  and  _121
REMARK   52  A    between atoms: _120  and  _123
REMARK   53  A    between atoms: _123  and  _124
REMARK   54  A    between atoms: _124  and  _125
REMARK   55  A    between atoms: _125  and  _126
REMARK   56  A    between atoms: _126  and  _127
REMARK   57  A    between atoms: _131  and  _133
REMARK   58  A    between atoms: _133  and  _134
REMARK   59  A    between atoms: _133  and  _136
REMARK   60  A    between atoms: _136  and  _137
REMARK   61  A    between atoms: _137  and  _138
REMARK   62  A    between atoms: _140  and  _142
REMARK   63  A    between atoms: _142  and  _143
REMARK   64  A    between atoms: _142  and  _145
REMARK   65  A    between atoms: _145  and  _146
REMARK   66  A    between atoms: _149  and  _151
REMARK   67  A    between atoms: _151  and  _152
REMARK   68  A    between atoms: _154  and  _156
REMARK   69  A    between atoms: _156  and  _157
REMARK   70  A    between atoms: _159  and  _161
REMARK   71  A    between atoms: _161  and  _162
REMARK   72  A    between atoms: _161  and  _164
REMARK   73  A    between atoms: _164  and  _165
REMARK   74  A    between atoms: _168  and  _170
REMARK   75  A    between atoms: _170  and  _171
REMARK   76  A    between atoms: _173  and  _175
REMARK   77  A    between atoms: _175  and  _176
REMARK   78  A    between atoms: _178  and  _180
REMARK   79  A    between atoms: _180  and  _181
REMARK   80  A    between atoms: _180  and  _183
REMARK   81  A    between atoms: _183  and  _184
REMARK   82  A    between atoms: _190  and  _192
REMARK   83  A    between atoms: _192  and  _193
REMARK   84  A    between atoms: _192  and  _195
REMARK   85  A    between atoms: _195  and  _196
REMARK   86  A    between atoms: _199  and  _201
REMARK   87  A    between atoms: _201  and  _202
REMARK   88  A    between atoms: _201  and  _204
REMARK   89  A    between atoms: _207  and  _209
REMARK   90  A    between atoms: _209  and  _210
REMARK   91  A    between atoms: _209  and  _212
REMARK   92  A    between atoms: _212  and  _213
REMARK   93  A    between atoms: _216  and  _218
REMARK   94  A    between atoms: _218  and  _219
REMARK   95  A    between atoms: _218  and  _221
REMARK   96  A    between atoms: _221  and  _222
REMARK   97  A    between atoms: _226  and  _227
REMARK   98  A    between atoms: _232  and  _234
REMARK   99  A    between atoms: _234  and  _235
REMARK  100  A    between atoms: _234  and  _237
REMARK  101  A    between atoms: _240  and  _242
REMARK  102  A    between atoms: _242  and  _243
REMARK  103  A    between atoms: _242  and  _245
REMARK  104  A    between atoms: _245  and  _246
REMARK  105  A    between atoms: _251  and  _253
REMARK  106  A    between atoms: _253  and  _254
REMARK  107  A    between atoms: _253  and  _256
REMARK  108  A    between atoms: _256  and  _257
REMARK  109  A    between atoms: _260  and  _262
REMARK  110  A    between atoms: _262  and  _263
REMARK  111  A    between atoms: _262  and  _265
REMARK  112  A    between atoms: _265  and  _266
REMARK  113  A    between atoms: _269  and  _271
REMARK  114  A    between atoms: _271  and  _272
REMARK  115  A    between atoms: _274  and  _276
REMARK  116  A    between atoms: _276  and  _277
REMARK  117  A    between atoms: _276  and  _279
REMARK  118  A    between atoms: _279  and  _280
REMARK  119  A    between atoms: _280  and  _281
REMARK  120  A    between atoms: _281  and  _282
REMARK  121  A    between atoms: _291  and  _293
REMARK  122  A    between atoms: _293  and  _294
REMARK  123  A    between atoms: _293  and  _296
REMARK  124  A    between atoms: _296  and  _297
REMARK  125  A    between atoms: _297  and  _298
REMARK  126  A    between atoms: _298  and  _299
REMARK  127  A    between atoms: _308  and  _310
REMARK  128  A    between atoms: _310  and  _311
REMARK  129  A    between atoms: _310  and  _313
REMARK  130  A    between atoms: _313  and  _314
REMARK  131  A    between atoms: _317  and  _319
REMARK  132  A    between atoms: _319  and  _320
REMARK  133  A    between atoms: _319  and  _322
REMARK  134  A    between atoms: _322  and  _323
REMARK  135  A    between atoms: _326  and  _328
REMARK  136  A    between atoms: _328  and  _329
REMARK  137  A    between atoms: _328  and  _331
REMARK  138  A    between atoms: _331  and  _332
REMARK  139  A    between atoms: _335  and  _337
REMARK  140  A    between atoms: _337  and  _338
REMARK  141  A    between atoms: _337  and  _340
REMARK  142  A    between atoms: _340  and  _341
REMARK  143  A    between atoms: _344  and  _346
REMARK  144  A    between atoms: _346  and  _347
REMARK  145  A    between atoms: _346  and  _349
REMARK  146  A    between atoms: _349  and  _350
REMARK  147  A    between atoms: _353  and  _355
REMARK  148  A    between atoms: _355  and  _356
REMARK  149  A    between atoms: _358  and  _360
REMARK  150  A    between atoms: _360  and  _361
REMARK  151  A    between atoms: _364  and  _366
REMARK  152  A    between atoms: _366  and  _367
REMARK  153  A    between atoms: _366  and  _369
REMARK  154  A    between atoms: _369  and  _370
REMARK  155  A    between atoms: _373  and  _375
REMARK  156  A    between atoms: _375  and  _376
REMARK  157  A    between atoms: _375  and  _378
REMARK  158  A    between atoms: _378  and  _379
REMARK  159  A    between atoms: _382  and  _384
REMARK  160  A    between atoms: _384  and  _385
REMARK  161  A    between atoms: _384  and  _387
REMARK  162  A    between atoms: _387  and  _388
REMARK  163  A    between atoms: _391  and  _393
REMARK  164  A    between atoms: _393  and  _394
REMARK  165  A    between atoms: _393  and  _396
REMARK  166  A    between atoms: _399  and  _401
REMARK  167  A    between atoms: _401  and  _402
REMARK  168  A    between atoms: _401  and  _404
REMARK  169  A    between atoms: _404  and  _405
REMARK  170  A    between atoms: _408  and  _410
REMARK  171  A    between atoms: _410  and  _411
REMARK  172  A    between atoms: _410  and  _413
REMARK  173  A    between atoms: _413  and  _414
REMARK  174  A    between atoms: _414  and  _415
REMARK  175  A    between atoms: _415  and  _416
REMARK  176  A    between atoms: _416  and  _417
REMARK  177  A    between atoms: _421  and  _423
REMARK  178  A    between atoms: _423  and  _424
REMARK  179  A    between atoms: _423  and  _426
REMARK  180  A    between atoms: _426  and  _427
REMARK  181  A    between atoms: _427  and  _428
REMARK  182  A    between atoms: _430  and  _432
REMARK  183  A    between atoms: _432  and  _433
REMARK  184  A    between atoms: _432  and  _435
REMARK  185  A    between atoms: _435  and  _436
REMARK  186  A    between atoms: _439  and  _441
REMARK  187  A    between atoms: _441  and  _442
REMARK  188  A    between atoms: _444  and  _446
REMARK  189  A    between atoms: _446  and  _447
REMARK  190  A    between atoms: _449  and  _451
REMARK  191  A    between atoms: _451  and  _452
REMARK  192  A    between atoms: _451  and  _454
REMARK  193  A    between atoms: _454  and  _455
REMARK  194  A    between atoms: _458  and  _460
REMARK  195  A    between atoms: _460  and  _461
REMARK  196  A    between atoms: _463  and  _465
REMARK  197  A    between atoms: _465  and  _466
REMARK  198  A    between atoms: _468  and  _470
REMARK  199  A    between atoms: _470  and  _471
REMARK  200  A    between atoms: _470  and  _473
REMARK  201  A    between atoms: _473  and  _474
REMARK  202  A    between atoms: _480  and  _482
REMARK  203  A    between atoms: _482  and  _483
REMARK  204  A    between atoms: _482  and  _485
REMARK  205  A    between atoms: _485  and  _486
REMARK  206  A    between atoms: _489  and  _491
REMARK  207  A    between atoms: _491  and  _492
REMARK  208  A    between atoms: _491  and  _494
REMARK  209  A    between atoms: _497  and  _499
REMARK  210  A    between atoms: _499  and  _500
REMARK  211  A    between atoms: _499  and  _502
REMARK  212  A    between atoms: _502  and  _503
REMARK  213  A    between atoms: _506  and  _508
REMARK  214  A    between atoms: _508  and  _509
REMARK  215  A    between atoms: _508  and  _511
REMARK  216  A    between atoms: _511  and  _512
REMARK  217  A    between atoms: _516  and  _517
REMARK  218  A    between atoms: _522  and  _524
REMARK  219  A    between atoms: _524  and  _525
REMARK  220  A    between atoms: _524  and  _527
REMARK  221  A    between atoms: _530  and  _532
REMARK  222  A    between atoms: _532  and  _533
REMARK  223  A    between atoms: _532  and  _535
REMARK  224  A    between atoms: _535  and  _536
REMARK  225  A    between atoms: _541  and  _543
REMARK  226  A    between atoms: _543  and  _544
REMARK  227  A    between atoms: _543  and  _546
REMARK  228  A    between atoms: _546  and  _547
REMARK  229  A    between atoms: _550  and  _552
REMARK  230  A    between atoms: _552  and  _553
REMARK  231  A    between atoms: _552  and  _555
REMARK  232  A    between atoms: _555  and  _556
REMARK  233  A    between atoms: _559  and  _561
REMARK  234  A    between atoms: _561  and  _562
REMARK  235  A    between atoms: _564  and  _566
REMARK  236  A    between atoms: _566  and  _567
REMARK  237  A    between atoms: _566  and  _569
REMARK  238  A    between atoms: _569  and  _570
REMARK  239  A    between atoms: _570  and  _571
REMARK  240  A    between atoms: _571  and  _572
REMARK                            x       y       z     vdW  Elec       q    Type
REMARK                         _______ _______ _______ _____ _____    ______ ____
ROOT
ATOM      1  O   HOH     1      20.833  21.967   6.458  0.00  0.00    +0.000 OA
ENDROOT
TORSDOF 0
REMARK  Name = ../refined-set-2016/1ebw/1ebw_pocket.pdb
REMARK  240 active torsions:
REMARK  status: ('A' for Active; 'I' for Inactive)
REMARK    1  A    between atoms: _1  and  _3
REMARK    2  A    between atoms: _3  and  _4
REMARK    3  A    between atoms: _3  and  _6
REMARK    4  A    between atoms: _6  and  _7
REMARK    5  A    between atoms: _7  and  _8
REMARK    6  A    between atoms: _8  and  _9
REMARK    7  A    between atoms: _18  and  _20
REMARK    8  A    between atoms: _20  and  _21
REMARK    9  A    between atoms: _20  and  _23
REMARK   10  A    between atoms: _23  and  _24
REMARK   11  A    between atoms: _27  and  _29
REMARK   12  A    between atoms: _29  and  _30
REMARK   13  A    between atoms: _29  and  _32
REMARK   14  A    between atoms: _32  and  _33
REMARK   15  A    between atoms: _36  and  _38
REMARK   16  A    between atoms: _38  and  _39
REMARK   17  A    between atoms: _38  and  _41
REMARK   18  A    between atoms: _41  and  _42
REMARK   19  A    between atoms: _45  and  _47
REMARK   20  A    between atoms: _47  and  _48
REMARK   21  A    between atoms: _47  and  _50
REMARK   22  A    between atoms: _50  and  _51
REMARK   23  A    between atoms: _54  and  _56
REMARK   24  A    between atoms: _56  and  _57
REMARK   25  A    between atoms: _56  and  _59
REMARK   26  A    between atoms: _59  and  _60
REMARK   27  A    between atoms: _63  and  _65
REMARK   28  A    between atoms: _65  and  _66
REMARK   29  A    between atoms: _68  and  _70
REMARK   30  A    between atoms: _70  and  _71
REMARK   31  A    between atoms: _74  and  _76
REMARK   32  A    between atoms: _76  and  _77
REMARK   33  A    between atoms: _76  and  _79
REMARK   34  A    between atoms: _79  and  _80
REMARK   35  A    between atoms: _83  and  _85
REMARK   36  A    between atoms: _85  and  _86
REMARK   37  A    between atoms: _85  and  _88
REMARK   38  A    between atoms: _88  and  _89
REMARK   39  A    between atoms: _92  and  _94
REMARK   40  A    between atoms: _94  and  _95
REMARK   41  A    between atoms: _94  and  _97
REMARK   42  A    between atoms: _97  and  _98
REMARK   43  A    between atoms: _101  and  _103
REMARK   44  A    between atoms: _103  and  _104
REMARK   45  A    between atoms: _103  and  _106
REMARK   46  A    between atoms: _109  and  _111
REMARK   47  A    between atoms: _111  and  _112
REMARK   48  A    between atoms: _111  and  _114
REMARK   49  A    between atoms: _114  and  _115
REMARK   50  A    between atoms: _118  and  _120
REMARK   51  A    between atoms: _120  and  _121
REMARK   52  A    between atoms: _120  and  _123
REMARK   53  A    between atoms: _123  and  _124
REMARK   54  A    between atoms: _124  and  _125
REMARK   55  A    between atoms: _125  and  _126
REMARK   56  A    between atoms: _126  and  _127
REMARK   57  A    between atoms: _131  and  _133
REMARK   58  A    between atoms: _133  and  _134
REMARK   59  A    between atoms: _133  and  _136
REMARK   60  A    between atoms: _136  and  _137
REMARK   61  A    between atoms: _137  and  _138
REMARK   62  A    between atoms: _140  and  _142
REMARK   63  A    between atoms: _142  and  _143
REMARK   64  A    between atoms: _142  and  _145
REMARK   65  A    between atoms: _145  and  _146
REMARK   66  A    between atoms: _149  and  _151
REMARK   67  A    between atoms: _151  and  _152
REMARK   68  A    between atoms: _154  and  _156
REMARK   69  A    between atoms: _156  and  _157
REMARK   70  A    between atoms: _159  and  _161
REMARK   71  A    between atoms: _161  and  _162
REMARK   72  A    between atoms: _161  and  _164
REMARK   73  A    between atoms: _164  and  _165
REMARK   74  A    between atoms: _168  and  _170
REMARK   75  A    between atoms: _170  and  _171
REMARK   76  A    between atoms: _173  and  _175
REMARK   77  A    between atoms: _175  and  _176
REMARK   78  A    between atoms: _178  and  _180
REMARK   79  A    between atoms: _180  and  _181
REMARK   80  A    between atoms: _180  and  _183
REMARK   81  A    between atoms: _183  and  _184
REMARK   82  A    between atoms: _190  and  _192
REMARK   83  A    between atoms: _192  and  _193
REMARK   84  A    between atoms: _192  and  _195
REMARK   85  A    between atoms: _195  and  _196
REMARK   86  A    between atoms: _199  and  _201
REMARK   87  A    between atoms: _201  and  _202
REMARK   88  A    between atoms: _201  and  _204
REMARK   89  A    between atoms: _207  and  _209
REMARK   90  A    between atoms: _209  and  _210
REMARK   91  A    between atoms: _209  and  _212
REMARK   92  A    between atoms: _212  and  _213
REMARK   93  A    between atoms: _216  and  _218
REMARK   94  A    between atoms: _218  and  _219
REMARK   95  A    between atoms: _218  and  _221
REMARK   96  A    between atoms: _221  and  _222
REMARK   97  A    between atoms: _226  and  _227
REMARK   98  A    between atoms: _232  and  _234
REMARK   99  A    between atoms: _234  and  _235
REMARK  100  A    between atoms: _234  and  _237
REMARK  101  A    between atoms: _240  and  _242
REMARK  102  A    between atoms: _242  and  _243
REMARK  103  A    between atoms: _242  and  _245
REMARK  104  A    between atoms: _245  and  _246
REMARK  105  A    between atoms: _251  and  _253
REMARK  106  A    between atoms: _253  and  _254
REMARK  107  A    between atoms: _253  and  _256
REMARK  108  A    between atoms: _256  and  _257
REMARK  109  A    between atoms: _260  and  _262
REMARK  110  A    between atoms: _262  and  _263
REMARK  111  A    between atoms: _262  and  _265
REMARK  112  A    between atoms: _265  and  _266
REMARK  113  A    between atoms: _269  and  _271
REMARK  114  A    between atoms: _271  and  _272
REMARK  115  A    between atoms: _274  and  _276
REMARK  116  A    between atoms: _276  and  _277
REMARK  117  A    between atoms: _276  and  _279
REMARK  118  A    between atoms: _279  and  _280
REMARK  119  A    between atoms: _280  and  _281
REMARK  120  A    between atoms: _281  and  _282
REMARK  121  A    between atoms: _291  and  _293
REMARK  122  A    between atoms: _293  and  _294
REMARK  123  A    between atoms: _293  and  _296
REMARK  124  A    between atoms: _296  and  _297
REMARK  125  A    between atoms: _297  and  _298
REMARK  126  A    between atoms: _298  and  _299
REMARK  127  A    between atoms: _308  and  _310
REMARK  128  A    between atoms: _310  and  _311
REMARK  129  A    between atoms: _310  and  _313
REMARK  130  A    between atoms: _313  and  _314
REMARK  131  A    between atoms: _317  and  _319
REMARK  132  A    between atoms: _319  and  _320
REMARK  133  A    between atoms: _319  and  _322
REMARK  134  A    between atoms: _322  and  _323
REMARK  135  A    between atoms: _326  and  _328
REMARK  136  A    between atoms: _328  and  _329
REMARK  137  A    between atoms: _328  and  _331
REMARK  138  A    between atoms: _331  and  _332
REMARK  139  A    between atoms: _335  and  _337
REMARK  140  A    between atoms: _337  and  _338
REMARK  141  A    between atoms: _337  and  _340
REMARK  142  A    between atoms: _340  and  _341
REMARK  143  A    between atoms: _344  and  _346
REMARK  144  A    between atoms: _346  and  _347
REMARK  145  A    between atoms: _346  and  _349
REMARK  146  A    between atoms: _349  and  _350
REMARK  147  A    between atoms: _353  and  _355
REMARK  148  A    between atoms: _355  and  _356
REMARK  149  A    between atoms: _358  and  _360
REMARK  150  A    between atoms: _360  and  _361
REMARK  151  A    between atoms: _364  and  _366
REMARK  152  A    between atoms: _366  and  _367
REMARK  153  A    between atoms: _366  and  _369
REMARK  154  A    between atoms: _369  and  _370
REMARK  155  A    between atoms: _373  and  _375
REMARK  156  A    between atoms: _375  and  _376
REMARK  157  A    between atoms: _375  and  _378
REMARK  158  A    between atoms: _378  and  _379
REMARK  159  A    between atoms: _382  and  _384
REMARK  160  A    between atoms: _384  and  _385
REMARK  161  A    between atoms: _384  and  _387
REMARK  162  A    between atoms: _387  and  _388
REMARK  163  A    between atoms: _391  and  _393
REMARK  164  A    between atoms: _393  and  _394
REMARK  165  A    between atoms: _393  and  _396
REMARK  166  A    between atoms: _399  and  _401
REMARK  167  A    between atoms: _401  and  _402
REMARK  168  A    between atoms: _401  and  _404
REMARK  169  A    between atoms: _404  and  _405
REMARK  170  A    between atoms: _408  and  _410
REMARK  171  A    between atoms: _410  and  _411
REMARK  172  A    between atoms: _410  and  _413
REMARK  173  A    between atoms: _413  and  _414
REMARK  174  A    between atoms: _414  and  _415
REMARK  175  A    between atoms: _415  and  _416
REMARK  176  A    between atoms: _416  and  _417
REMARK  177  A    between atoms: _421  and  _423
REMARK  178  A    between atoms: _423  and  _424
REMARK  179  A    between atoms: _423  and  _426
REMARK  180  A    between atoms: _426  and  _427
REMARK  181  A    between atoms: _427  and  _428
REMARK  182  A    between atoms: _430  and  _432
REMARK  183  A    between atoms: _432  and  _433
REMARK  184  A    between atoms: _432  and  _435
REMARK  185  A    between atoms: _435  and  _436
REMARK  186  A    between atoms: _439  and  _441
REMARK  187  A    between atoms: _441  and  _442
REMARK  188  A    between atoms: _444  and  _446
REMARK  189  A    between atoms: _446  and  _447
REMARK  190  A    between atoms: _449  and  _451
REMARK  191  A    between atoms: _451  and  _452
REMARK  192  A    between atoms: _451  and  _454
REMARK  193  A    between atoms: _454  and  _455
REMARK  194  A    between atoms: _458  and  _460
REMARK  195  A    between atoms: _460  and  _461
REMARK  196  A    between atoms: _463  and  _465
REMARK  197  A    between atoms: _465  and  _466
REMARK  198  A    between atoms: _468  and  _470
REMARK  199  A    between atoms: _470  and  _471
REMARK  200  A    between atoms: _470  and  _473
REMARK  201  A    between atoms: _473  and  _474
REMARK  202  A    between atoms: _480  and  _482
REMARK  203  A    between atoms: _482  and  _483
REMARK  204  A    between atoms: _482  and  _485
REMARK  205  A    between atoms: _485  and  _486
REMARK  206  A    between atoms: _489  and  _491
REMARK  207  A    between atoms: _491  and  _492
REMARK  208  A    between atoms: _491  and  _494
REMARK  209  A    between atoms: _497  and  _499
REMARK  210  A    between atoms: _499  and  _500
REMARK  211  A    between atoms: _499  and  _502
REMARK  212  A    between atoms: _502  and  _503
REMARK  213  A    between atoms: _506  and  _508
REMARK  214  A    between atoms: _508  and  _509
REMARK  215  A    between atoms: _508  and  _511
REMARK  216  A    between atoms: _511  and  _512
REMARK  217  A    between atoms: _516  and  _517
REMARK  218  A    between atoms: _522  and  _524
REMARK  219  A    between atoms: _524  and  _525
REMARK  220  A    between atoms: _524  and  _527
REMARK  221  A    between atoms: _530  and  _532
REMARK  222  A    between atoms: _532  and  _533
REMARK  223  A    between atoms: _532  and  _535
REMARK  224  A    between atoms: _535  and  _536
REMARK  225  A    between atoms: _541  and  _543
REMARK  226  A    between atoms: _543  and  _544
REMARK  227  A    between atoms: _543  and  _546
REMARK  228  A    between atoms: _546  and  _547
REMARK  229  A    between atoms: _550  and  _552
REMARK  230  A    between atoms: _552  and  _553
REMARK  231  A    between atoms: _552  and  _555
REMARK  232  A    between atoms: _555  and  _556
REMARK  233  A    between atoms: _559  and  _561
REMARK  234  A    between atoms: _561  and  _562
REMARK  235  A    between atoms: _564  and  _566
REMARK  236  A    between atoms: _566  and  _567
REMARK  237  A    between atoms: _566  and  _569
REMARK  238  A    between atoms: _569  and  _570
REMARK  239  A    between atoms: _570  and  _571
REMARK  240  A    between atoms: _571  and  _572
REMARK                            x       y       z     vdW  Elec       q    Type
REMARK                         _______ _______ _______ _____ _____    ______ ____
ROOT
ATOM      1  O   HOH     1      18.312  14.594   6.398  0.00  0.00    +0.000 OA
ENDROOT
TORSDOF 0
REMARK  Name = ../refined-set-2016/1ebw/1ebw_pocket.pdb
REMARK  240 active torsions:
REMARK  status: ('A' for Active; 'I' for Inactive)
REMARK    1  A    between atoms: _1  and  _3
REMARK    2  A    between atoms: _3  and  _4
REMARK    3  A    between atoms: _3  and  _6
REMARK    4  A    between atoms: _6  and  _7
REMARK    5  A    between atoms: _7  and  _8
REMARK    6  A    between atoms: _8  and  _9
REMARK    7  A    between atoms: _18  and  _20
REMARK    8  A    between atoms: _20  and  _21
REMARK    9  A    between atoms: _20  and  _23
REMARK   10  A    between atoms: _23  and  _24
REMARK   11  A    between atoms: _27  and  _29
REMARK   12  A    between atoms: _29  and  _30
REMARK   13  A    between atoms: _29  and  _32
REMARK   14  A    between atoms: _32  and  _33
REMARK   15  A    between atoms: _36  and  _38
REMARK   16  A    between atoms: _38  and  _39
REMARK   17  A    between atoms: _38  and  _41
REMARK   18  A    between atoms: _41  and  _42
REMARK   19  A    between atoms: _45  and  _47
REMARK   20  A    between atoms: _47  and  _48
REMARK   21  A    between atoms: _47  and  _50
REMARK   22  A    between atoms: _50  and  _51
REMARK   23  A    between atoms: _54  and  _56
REMARK   24  A    between atoms: _56  and  _57
REMARK   25  A    between atoms: _56  and  _59
REMARK   26  A    between atoms: _59  and  _60
REMARK   27  A    between atoms: _63  and  _65
REMARK   28  A    between atoms: _65  and  _66
REMARK   29  A    between atoms: _68  and  _70
REMARK   30  A    between atoms: _70  and  _71
REMARK   31  A    between atoms: _74  and  _76
REMARK   32  A    between atoms: _76  and  _77
REMARK   33  A    between atoms: _76  and  _79
REMARK   34  A    between atoms: _79  and  _80
REMARK   35  A    between atoms: _83  and  _85
REMARK   36  A    between atoms: _85  and  _86
REMARK   37  A    between atoms: _85  and  _88
REMARK   38  A    between atoms: _88  and  _89
REMARK   39  A    between atoms: _92  and  _94
REMARK   40  A    between atoms: _94  and  _95
REMARK   41  A    between atoms: _94  and  _97
REMARK   42  A    between atoms: _97  and  _98
REMARK   43  A    between atoms: _101  and  _103
REMARK   44  A    between atoms: _103  and  _104
REMARK   45  A    between atoms: _103  and  _106
REMARK   46  A    between atoms: _109  and  _111
REMARK   47  A    between atoms: _111  and  _112
REMARK   48  A    between atoms: _111  and  _114
REMARK   49  A    between atoms: _114  and  _115
REMARK   50  A    between atoms: _118  and  _120
REMARK   51  A    between atoms: _120  and  _121
REMARK   52  A    between atoms: _120  and  _123
REMARK   53  A    between atoms: _123  and  _124
REMARK   54  A    between atoms: _124  and  _125
REMARK   55  A    between atoms: _125  and  _126
REMARK   56  A    between atoms: _126  and  _127
REMARK   57  A    between atoms: _131  and  _133
REMARK   58  A    between atoms: _133  and  _134
REMARK   59  A    between atoms: _133  and  _136
REMARK   60  A    between atoms: _136  and  _137
REMARK   61  A    between atoms: _137  and  _138
REMARK   62  A    between atoms: _140  and  _142
REMARK   63  A    between atoms: _142  and  _143
REMARK   64  A    between atoms: _142  and  _145
REMARK   65  A    between atoms: _145  and  _146
REMARK   66  A    between atoms: _149  and  _151
REMARK   67  A    between atoms: _151  and  _152
REMARK   68  A    between atoms: _154  and  _156
REMARK   69  A    between atoms: _156  and  _157
REMARK   70  A    between atoms: _159  and  _161
REMARK   71  A    between atoms: _161  and  _162
REMARK   72  A    between atoms: _161  and  _164
REMARK   73  A    between atoms: _164  and  _165
REMARK   74  A    between atoms: _168  and  _170
REMARK   75  A    between atoms: _170  and  _171
REMARK   76  A    between atoms: _173  and  _175
REMARK   77  A    between atoms: _175  and  _176
REMARK   78  A    between atoms: _178  and  _180
REMARK   79  A    between atoms: _180  and  _181
REMARK   80  A    between atoms: _180  and  _183
REMARK   81  A    between atoms: _183  and  _184
REMARK   82  A    between atoms: _190  and  _192
REMARK   83  A    between atoms: _192  and  _193
REMARK   84  A    between atoms: _192  and  _195
REMARK   85  A    between atoms: _195  and  _196
REMARK   86  A    between atoms: _199  and  _201
REMARK   87  A    between atoms: _201  and  _202
REMARK   88  A    between atoms: _201  and  _204
REMARK   89  A    between atoms: _207  and  _209
REMARK   90  A    between atoms: _209  and  _210
REMARK   91  A    between atoms: _209  and  _212
REMARK   92  A    between atoms: _212  and  _213
REMARK   93  A    between atoms: _216  and  _218
REMARK   94  A    between atoms: _218  and  _219
REMARK   95  A    between atoms: _218  and  _221
REMARK   96  A    between atoms: _221  and  _222
REMARK   97  A    between atoms: _226  and  _227
REMARK   98  A    between atoms: _232  and  _234
REMARK   99  A    between atoms: _234  and  _235
REMARK  100  A    between atoms: _234  and  _237
REMARK  101  A    between atoms: _240  and  _242
REMARK  102  A    between atoms: _242  and  _243
REMARK  103  A    between atoms: _242  and  _245
REMARK  104  A    between atoms: _245  and  _246
REMARK  105  A    between atoms: _251  and  _253
REMARK  106  A    between atoms: _253  and  _254
REMARK  107  A    between atoms: _253  and  _256
REMARK  108  A    between atoms: _256  and  _257
REMARK  109  A    between atoms: _260  and  _262
REMARK  110  A    between atoms: _262  and  _263
REMARK  111  A    between atoms: _262  and  _265
REMARK  112  A    between atoms: _265  and  _266
REMARK  113  A    between atoms: _269  and  _271
REMARK  114  A    between atoms: _271  and  _272
REMARK  115  A    between atoms: _274  and  _276
REMARK  116  A    between atoms: _276  and  _277
REMARK  117  A    between atoms: _276  and  _279
REMARK  118  A    between atoms: _279  and  _280
REMARK  119  A    between atoms: _280  and  _281
REMARK  120  A    between atoms: _281  and  _282
REMARK  121  A    between atoms: _291  and  _293
REMARK  122  A    between atoms: _293  and  _294
REMARK  123  A    between atoms: _293  and  _296
REMARK  124  A    between atoms: _296  and  _297
REMARK  125  A    between atoms: _297  and  _298
REMARK  126  A    between atoms: _298  and  _299
REMARK  127  A    between atoms: _308  and  _310
REMARK  128  A    between atoms: _310  and  _311
REMARK  129  A    between atoms: _310  and  _313
REMARK  130  A    between atoms: _313  and  _314
REMARK  131  A    between atoms: _317  and  _319
REMARK  132  A    between atoms: _319  and  _320
REMARK  133  A    between atoms: _319  and  _322
REMARK  134  A    between atoms: _322  and  _323
REMARK  135  A    between atoms: _326  and  _328
REMARK  136  A    between atoms: _328  and  _329
REMARK  137  A    between atoms: _328  and  _331
REMARK  138  A    between atoms: _331  and  _332
REMARK  139  A    between atoms: _335  and  _337
REMARK  140  A    between atoms: _337  and  _338
REMARK  141  A    between atoms: _337  and  _340
REMARK  142  A    between atoms: _340  and  _341
REMARK  143  A    between atoms: _344  and  _346
REMARK  144  A    between atoms: _346  and  _347
REMARK  145  A    between atoms: _346  and  _349
REMARK  146  A    between atoms: _349  and  _350
REMARK  147  A    between atoms: _353  and  _355
REMARK  148  A    between atoms: _355  and  _356
REMARK  149  A    between atoms: _358  and  _360
REMARK  150  A    between atoms: _360  and  _361
REMARK  151  A    between atoms: _364  and  _366
REMARK  152  A    between atoms: _366  and  _367
REMARK  153  A    between atoms: _366  and  _369
REMARK  154  A    between atoms: _369  and  _370
REMARK  155  A    between atoms: _373  and  _375
REMARK  156  A    between atoms: _375  and  _376
REMARK  157  A    between atoms: _375  and  _378
REMARK  158  A    between atoms: _378  and  _379
REMARK  159  A    between atoms: _382  and  _384
REMARK  160  A    between atoms: _384  and  _385
REMARK  161  A    between atoms: _384  and  _387
REMARK  162  A    between atoms: _387  and  _388
REMARK  163  A    between atoms: _391  and  _393
REMARK  164  A    between atoms: _393  and  _394
REMARK  165  A    between atoms: _393  and  _396
REMARK  166  A    between atoms: _399  and  _401
REMARK  167  A    between atoms: _401  and  _402
REMARK  168  A    between atoms: _401  and  _404
REMARK  169  A    between atoms: _404  and  _405
REMARK  170  A    between atoms: _408  and  _410
REMARK  171  A    between atoms: _410  and  _411
REMARK  172  A    between atoms: _410  and  _413
REMARK  173  A    between atoms: _413  and  _414
REMARK  174  A    between atoms: _414  and  _415
REMARK  175  A    between atoms: _415  and  _416
REMARK  176  A    between atoms: _416  and  _417
REMARK  177  A    between atoms: _421  and  _423
REMARK  178  A    between atoms: _423  and  _424
REMARK  179  A    between atoms: _423  and  _426
REMARK  180  A    between atoms: _426  and  _427
REMARK  181  A    between atoms: _427  and  _428
REMARK  182  A    between atoms: _430  and  _432
REMARK  183  A    between atoms: _432  and  _433
REMARK  184  A    between atoms: _432  and  _435
REMARK  185  A    between atoms: _435  and  _436
REMARK  186  A    between atoms: _439  and  _441
REMARK  187  A    between atoms: _441  and  _442
REMARK  188  A    between atoms: _444  and  _446
REMARK  189  A    between atoms: _446  and  _447
REMARK  190  A    between atoms: _449  and  _451
REMARK  191  A    between atoms: _451  and  _452
REMARK  192  A    between atoms: _451  and  _454
REMARK  193  A    between atoms: _454  and  _455
REMARK  194  A    between atoms: _458  and  _460
REMARK  195  A    between atoms: _460  and  _461
REMARK  196  A    between atoms: _463  and  _465
REMARK  197  A    between atoms: _465  and  _466
REMARK  198  A    between atoms: _468  and  _470
REMARK  199  A    between atoms: _470  and  _471
REMARK  200  A    between atoms: _470  and  _473
REMARK  201  A    between atoms: _473  and  _474
REMARK  202  A    between atoms: _480  and  _482
REMARK  203  A    between atoms: _482  and  _483
REMARK  204  A    between atoms: _482  and  _485
REMARK  205  A    between atoms: _485  and  _486
REMARK  206  A    between atoms: _489  and  _491
REMARK  207  A    between atoms: _491  and  _492
REMARK  208  A    between atoms: _491  and  _494
REMARK  209  A    between atoms: _497  and  _499
REMARK  210  A    between atoms: _499  and  _500
REMARK  211  A    between atoms: _499  and  _502
REMARK  212  A    between atoms: _502  and  _503
REMARK  213  A    between atoms: _506  and  _508
REMARK  214  A    between atoms: _508  and  _509
REMARK  215  A    between atoms: _508  and  _511
REMARK  216  A    between atoms: _511  and  _512
REMARK  217  A    between atoms: _516  and  _517
REMARK  218  A    between atoms: _522  and  _524
REMARK  219  A    between atoms: _524  and  _525
REMARK  220  A    between atoms: _524  and  _527
REMARK  221  A    between atoms: _530  and  _532
REMARK  222  A    between atoms: _532  and  _533
REMARK  223  A    between atoms: _532  and  _535
REMARK  224  A    between atoms: _535  and  _536
REMARK  225  A    between atoms: _541  and  _543
REMARK  226  A    between atoms: _543  and  _544
REMARK  227  A    between atoms: _543  and  _546
REMARK  228  A    between atoms: _546  and  _547
REMARK  229  A    between atoms: _550  and  _552
REMARK  230  A    between atoms: _552  and  _553
REMARK  231  A    between atoms: _552  and  _555
REMARK  232  A    between atoms: _555  and  _556
REMARK  233  A    between atoms: _559  and  _561
REMARK  234  A    between atoms: _561  and  _562
REMARK  235  A    between atoms: _564  and  _566
REMARK  236  A    between atoms: _566  and  _567
REMARK  237  A    between atoms: _566  and  _569
REMARK  238  A    between atoms: _569  and  _570
REMARK  239  A    between atoms: _570  and  _571
REMARK  240  A    between atoms: _571  and  _572
REMARK                            x       y       z     vdW  Elec       q    Type
REMARK                         _______ _______ _______ _____ _____    ______ ____
ROOT
ATOM      1  O   HOH     1      22.313  23.942   4.984  0.00  0.00    +0.000 OA
ENDROOT
TORSDOF 0
REMARK  Name = ../refined-set-2016/1ebw/1ebw_pocket.pdb
REMARK  240 active torsions:
REMARK  status: ('A' for Active; 'I' for Inactive)
REMARK    1  A    between atoms: _1  and  _3
REMARK    2  A    between atoms: _3  and  _4
REMARK    3  A    between atoms: _3  and  _6
REMARK    4  A    between atoms: _6  and  _7
REMARK    5  A    between atoms: _7  and  _8
REMARK    6  A    between atoms: _8  and  _9
REMARK    7  A    between atoms: _18  and  _20
REMARK    8  A    between atoms: _20  and  _21
REMARK    9  A    between atoms: _20  and  _23
REMARK   10  A    between atoms: _23  and  _24
REMARK   11  A    between atoms: _27  and  _29
REMARK   12  A    between atoms: _29  and  _30
REMARK   13  A    between atoms: _29  and  _32
REMARK   14  A    between atoms: _32  and  _33
REMARK   15  A    between atoms: _36  and  _38
REMARK   16  A    between atoms: _38  and  _39
REMARK   17  A    between atoms: _38  and  _41
REMARK   18  A    between atoms: _41  and  _42
REMARK   19  A    between atoms: _45  and  _47
REMARK   20  A    between atoms: _47  and  _48
REMARK   21  A    between atoms: _47  and  _50
REMARK   22  A    between atoms: _50  and  _51
REMARK   23  A    between atoms: _54  and  _56
REMARK   24  A    between atoms: _56  and  _57
REMARK   25  A    between atoms: _56  and  _59
REMARK   26  A    between atoms: _59  and  _60
REMARK   27  A    between atoms: _63  and  _65
REMARK   28  A    between atoms: _65  and  _66
REMARK   29  A    between atoms: _68  and  _70
REMARK   30  A    between atoms: _70  and  _71
REMARK   31  A    between atoms: _74  and  _76
REMARK   32  A    between atoms: _76  and  _77
REMARK   33  A    between atoms: _76  and  _79
REMARK   34  A    between atoms: _79  and  _80
REMARK   35  A    between atoms: _83  and  _85
REMARK   36  A    between atoms: _85  and  _86
REMARK   37  A    between atoms: _85  and  _88
REMARK   38  A    between atoms: _88  and  _89
REMARK   39  A    between atoms: _92  and  _94
REMARK   40  A    between atoms: _94  and  _95
REMARK   41  A    between atoms: _94  and  _97
REMARK   42  A    between atoms: _97  and  _98
REMARK   43  A    between atoms: _101  and  _103
REMARK   44  A    between atoms: _103  and  _104
REMARK   45  A    between atoms: _103  and  _106
REMARK   46  A    between atoms: _109  and  _111
REMARK   47  A    between atoms: _111  and  _112
REMARK   48  A    between atoms: _111  and  _114
REMARK   49  A    between atoms: _114  and  _115
REMARK   50  A    between atoms: _118  and  _120
REMARK   51  A    between atoms: _120  and  _121
REMARK   52  A    between atoms: _120  and  _123
REMARK   53  A    between atoms: _123  and  _124
REMARK   54  A    between atoms: _124  and  _125
REMARK   55  A    between atoms: _125  and  _126
REMARK   56  A    between atoms: _126  and  _127
REMARK   57  A    between atoms: _131  and  _133
REMARK   58  A    between atoms: _133  and  _134
REMARK   59  A    between atoms: _133  and  _136
REMARK   60  A    between atoms: _136  and  _137
REMARK   61  A    between atoms: _137  and  _138
REMARK   62  A    between atoms: _140  and  _142
REMARK   63  A    between atoms: _142  and  _143
REMARK   64  A    between atoms: _142  and  _145
REMARK   65  A    between atoms: _145  and  _146
REMARK   66  A    between atoms: _149  and  _151
REMARK   67  A    between atoms: _151  and  _152
REMARK   68  A    between atoms: _154  and  _156
REMARK   69  A    between atoms: _156  and  _157
REMARK   70  A    between atoms: _159  and  _161
REMARK   71  A    between atoms: _161  and  _162
REMARK   72  A    between atoms: _161  and  _164
REMARK   73  A    between atoms: _164  and  _165
REMARK   74  A    between atoms: _168  and  _170
REMARK   75  A    between atoms: _170  and  _171
REMARK   76  A    between atoms: _173  and  _175
REMARK   77  A    between atoms: _175  and  _176
REMARK   78  A    between atoms: _178  and  _180
REMARK   79  A    between atoms: _180  and  _181
REMARK   80  A    between atoms: _180  and  _183
REMARK   81  A    between atoms: _183  and  _184
REMARK   82  A    between atoms: _190  and  _192
REMARK   83  A    between atoms: _192  and  _193
REMARK   84  A    between atoms: _192  and  _195
REMARK   85  A    between atoms: _195  and  _196
REMARK   86  A    between atoms: _199  and  _201
REMARK   87  A    between atoms: _201  and  _202
REMARK   88  A    between atoms: _201  and  _204
REMARK   89  A    between atoms: _207  and  _209
REMARK   90  A    between atoms: _209  and  _210
REMARK   91  A    between atoms: _209  and  _212
REMARK   92  A    between atoms: _212  and  _213
REMARK   93  A    between atoms: _216  and  _218
REMARK   94  A    between atoms: _218  and  _219
REMARK   95  A    between atoms: _218  and  _221
REMARK   96  A    between atoms: _221  and  _222
REMARK   97  A    between atoms: _226  and  _227
REMARK   98  A    between atoms: _232  and  _234
REMARK   99  A    between atoms: _234  and  _235
REMARK  100  A    between atoms: _234  and  _237
REMARK  101  A    between atoms: _240  and  _242
REMARK  102  A    between atoms: _242  and  _243
REMARK  103  A    between atoms: _242  and  _245
REMARK  104  A    between atoms: _245  and  _246
REMARK  105  A    between atoms: _251  and  _253
REMARK  106  A    between atoms: _253  and  _254
REMARK  107  A    between atoms: _253  and  _256
REMARK  108  A    between atoms: _256  and  _257
REMARK  109  A    between atoms: _260  and  _262
REMARK  110  A    between atoms: _262  and  _263
REMARK  111  A    between atoms: _262  and  _265
REMARK  112  A    between atoms: _265  and  _266
REMARK  113  A    between atoms: _269  and  _271
REMARK  114  A    between atoms: _271  and  _272
REMARK  115  A    between atoms: _274  and  _276
REMARK  116  A    between atoms: _276  and  _277
REMARK  117  A    between atoms: _276  and  _279
REMARK  118  A    between atoms: _279  and  _280
REMARK  119  A    between atoms: _280  and  _281
REMARK  120  A    between atoms: _281  and  _282
REMARK  121  A    between atoms: _291  and  _293
REMARK  122  A    between atoms: _293  and  _294
REMARK  123  A    between atoms: _293  and  _296
REMARK  124  A    between atoms: _296  and  _297
REMARK  125  A    between atoms: _297  and  _298
REMARK  126  A    between atoms: _298  and  _299
REMARK  127  A    between atoms: _308  and  _310
REMARK  128  A    between atoms: _310  and  _311
REMARK  129  A    between atoms: _310  and  _313
REMARK  130  A    between atoms: _313  and  _314
REMARK  131  A    between atoms: _317  and  _319
REMARK  132  A    between atoms: _319  and  _320
REMARK  133  A    between atoms: _319  and  _322
REMARK  134  A    between atoms: _322  and  _323
REMARK  135  A    between atoms: _326  and  _328
REMARK  136  A    between atoms: _328  and  _329
REMARK  137  A    between atoms: _328  and  _331
REMARK  138  A    between atoms: _331  and  _332
REMARK  139  A    between atoms: _335  and  _337
REMARK  140  A    between atoms: _337  and  _338
REMARK  141  A    between atoms: _337  and  _340
REMARK  142  A    between atoms: _340  and  _341
REMARK  143  A    between atoms: _344  and  _346
REMARK  144  A    between atoms: _346  and  _347
REMARK  145  A    between atoms: _346  and  _349
REMARK  146  A    between atoms: _349  and  _350
REMARK  147  A    between atoms: _353  and  _355
REMARK  148  A    between atoms: _355  and  _356
REMARK  149  A    between atoms: _358  and  _360
REMARK  150  A    between atoms: _360  and  _361
REMARK  151  A    between atoms: _364  and  _366
REMARK  152  A    between atoms: _366  and  _367
REMARK  153  A    between atoms: _366  and  _369
REMARK  154  A    between atoms: _369  and  _370
REMARK  155  A    between atoms: _373  and  _375
REMARK  156  A    between atoms: _375  and  _376
REMARK  157  A    between atoms: _375  and  _378
REMARK  158  A    between atoms: _378  and  _379
REMARK  159  A    between atoms: _382  and  _384
REMARK  160  A    between atoms: _384  and  _385
REMARK  161  A    between atoms: _384  and  _387
REMARK  162  A    between atoms: _387  and  _388
REMARK  163  A    between atoms: _391  and  _393
REMARK  164  A    between atoms: _393  and  _394
REMARK  165  A    between atoms: _393  and  _396
REMARK  166  A    between atoms: _399  and  _401
REMARK  167  A    between atoms: _401  and  _402
REMARK  168  A    between atoms: _401  and  _404
REMARK  169  A    between atoms: _404  and  _405
REMARK  170  A    between atoms: _408  and  _410
REMARK  171  A    between atoms: _410  and  _411
REMARK  172  A    between atoms: _410  and  _413
REMARK  173  A    between atoms: _413  and  _414
REMARK  174  A    between atoms: _414  and  _415
REMARK  175  A    between atoms: _415  and  _416
REMARK  176  A    between atoms: _416  and  _417
REMARK  177  A    between atoms: _421  and  _423
REMARK  178  A    between atoms: _423  and  _424
REMARK  179  A    between atoms: _423  and  _426
REMARK  180  A    between atoms: _426  and  _427
REMARK  181  A    between atoms: _427  and  _428
REMARK  182  A    between atoms: _430  and  _432
REMARK  183  A    between atoms: _432  and  _433
REMARK  184  A    between atoms: _432  and  _435
REMARK  185  A    between atoms: _435  and  _436
REMARK  186  A    between atoms: _439  and  _441
REMARK  187  A    between atoms: _441  and  _442
REMARK  188  A    between atoms: _444  and  _446
REMARK  189  A    between atoms: _446  and  _447
REMARK  190  A    between atoms: _449  and  _451
REMARK  191  A    between atoms: _451  and  _452
REMARK  192  A    between atoms: _451  and  _454
REMARK  193  A    between atoms: _454  and  _455
REMARK  194  A    between atoms: _458  and  _460
REMARK  195  A    between atoms: _460  and  _461
REMARK  196  A    between atoms: _463  and  _465
REMARK  197  A    between atoms: _465  and  _466
REMARK  198  A    between atoms: _468  and  _470
REMARK  199  A    between atoms: _470  and  _471
REMARK  200  A    between atoms: _470  and  _473
REMARK  201  A    between atoms: _473  and  _474
REMARK  202  A    between atoms: _480  and  _482
REMARK  203  A    between atoms: _482  and  _483
REMARK  204  A    between atoms: _482  and  _485
REMARK  205  A    between atoms: _485  and  _486
REMARK  206  A    between atoms: _489  and  _491
REMARK  207  A    between atoms: _491  and  _492
REMARK  208  A    between atoms: _491  and  _494
REMARK  209  A    between atoms: _497  and  _499
REMARK  210  A    between atoms: _499  and  _500
REMARK  211  A    between atoms: _499  and  _502
REMARK  212  A    between atoms: _502  and  _503
REMARK  213  A    between atoms: _506  and  _508
REMARK  214  A    between atoms: _508  and  _509
REMARK  215  A    between atoms: _508  and  _511
REMARK  216  A    between atoms: _511  and  _512
REMARK  217  A    between atoms: _516  and  _517
REMARK  218  A    between atoms: _522  and  _524
REMARK  219  A    between atoms: _524  and  _525
REMARK  220  A    between atoms: _524  and  _527
REMARK  221  A    between atoms: _530  and  _532
REMARK  222  A    between atoms: _532  and  _533
REMARK  223  A    between atoms: _532  and  _535
REMARK  224  A    between atoms: _535  and  _536
REMARK  225  A    between atoms: _541  and  _543
REMARK  226  A    between atoms: _543  and  _544
REMARK  227  A    between atoms: _543  and  _546
REMARK  228  A    between atoms: _546  and  _547
REMARK  229  A    between atoms: _550  and  _552
REMARK  230  A    between atoms: _552  and  _553
REMARK  231  A    between atoms: _552  and  _555
REMARK  232  A    between atoms: _555  and  _556
REMARK  233  A    between atoms: _559  and  _561
REMARK  234  A    between atoms: _561  and  _562
REMARK  235  A    between atoms: _564  and  _566
REMARK  236  A    between atoms: _566  and  _567
REMARK  237  A    between atoms: _566  and  _569
REMARK  238  A    between atoms: _569  and  _570
REMARK  239  A    between atoms: _570  and  _571
REMARK  240  A    between atoms: _571  and  _572
REMARK                            x       y       z     vdW  Elec       q    Type
REMARK                         _______ _______ _______ _____ _____    ______ ____
ROOT
ATOM      1  O   HOH     1       6.556  26.500  -5.584  0.00  0.00    +0.000 OA
ENDROOT
TORSDOF 0
REMARK  Name = ../refined-set-2016/1ebw/1ebw_pocket.pdb
REMARK  240 active torsions:
REMARK  status: ('A' for Active; 'I' for Inactive)
REMARK    1  A    between atoms: _1  and  _3
REMARK    2  A    between atoms: _3  and  _4
REMARK    3  A    between atoms: _3  and  _6
REMARK    4  A    between atoms: _6  and  _7
REMARK    5  A    between atoms: _7  and  _8
REMARK    6  A    between atoms: _8  and  _9
REMARK    7  A    between atoms: _18  and  _20
REMARK    8  A    between atoms: _20  and  _21
REMARK    9  A    between atoms: _20  and  _23
REMARK   10  A    between atoms: _23  and  _24
REMARK   11  A    between atoms: _27  and  _29
REMARK   12  A    between atoms: _29  and  _30
REMARK   13  A    between atoms: _29  and  _32
REMARK   14  A    between atoms: _32  and  _33
REMARK   15  A    between atoms: _36  and  _38
REMARK   16  A    between atoms: _38  and  _39
REMARK   17  A    between atoms: _38  and  _41
REMARK   18  A    between atoms: _41  and  _42
REMARK   19  A    between atoms: _45  and  _47
REMARK   20  A    between atoms: _47  and  _48
REMARK   21  A    between atoms: _47  and  _50
REMARK   22  A    between atoms: _50  and  _51
REMARK   23  A    between atoms: _54  and  _56
REMARK   24  A    between atoms: _56  and  _57
REMARK   25  A    between atoms: _56  and  _59
REMARK   26  A    between atoms: _59  and  _60
REMARK   27  A    between atoms: _63  and  _65
REMARK   28  A    between atoms: _65  and  _66
REMARK   29  A    between atoms: _68  and  _70
REMARK   30  A    between atoms: _70  and  _71
REMARK   31  A    between atoms: _74  and  _76
REMARK   32  A    between atoms: _76  and  _77
REMARK   33  A    between atoms: _76  and  _79
REMARK   34  A    between atoms: _79  and  _80
REMARK   35  A    between atoms: _83  and  _85
REMARK   36  A    between atoms: _85  and  _86
REMARK   37  A    between atoms: _85  and  _88
REMARK   38  A    between atoms: _88  and  _89
REMARK   39  A    between atoms: _92  and  _94
REMARK   40  A    between atoms: _94  and  _95
REMARK   41  A    between atoms: _94  and  _97
REMARK   42  A    between atoms: _97  and  _98
REMARK   43  A    between atoms: _101  and  _103
REMARK   44  A    between atoms: _103  and  _104
REMARK   45  A    between atoms: _103  and  _106
REMARK   46  A    between atoms: _109  and  _111
REMARK   47  A    between atoms: _111  and  _112
REMARK   48  A    between atoms: _111  and  _114
REMARK   49  A    between atoms: _114  and  _115
REMARK   50  A    between atoms: _118  and  _120
REMARK   51  A    between atoms: _120  and  _121
REMARK   52  A    between atoms: _120  and  _123
REMARK   53  A    between atoms: _123  and  _124
REMARK   54  A    between atoms: _124  and  _125
REMARK   55  A    between atoms: _125  and  _126
REMARK   56  A    between atoms: _126  and  _127
REMARK   57  A    between atoms: _131  and  _133
REMARK   58  A    between atoms: _133  and  _134
REMARK   59  A    between atoms: _133  and  _136
REMARK   60  A    between atoms: _136  and  _137
REMARK   61  A    between atoms: _137  and  _138
REMARK   62  A    between atoms: _140  and  _142
REMARK   63  A    between atoms: _142  and  _143
REMARK   64  A    between atoms: _142  and  _145
REMARK   65  A    between atoms: _145  and  _146
REMARK   66  A    between atoms: _149  and  _151
REMARK   67  A    between atoms: _151  and  _152
REMARK   68  A    between atoms: _154  and  _156
REMARK   69  A    between atoms: _156  and  _157
REMARK   70  A    between atoms: _159  and  _161
REMARK   71  A    between atoms: _161  and  _162
REMARK   72  A    between atoms: _161  and  _164
REMARK   73  A    between atoms: _164  and  _165
REMARK   74  A    between atoms: _168  and  _170
REMARK   75  A    between atoms: _170  and  _171
REMARK   76  A    between atoms: _173  and  _175
REMARK   77  A    between atoms: _175  and  _176
REMARK   78  A    between atoms: _178  and  _180
REMARK   79  A    between atoms: _180  and  _181
REMARK   80  A    between atoms: _180  and  _183
REMARK   81  A    between atoms: _183  and  _184
REMARK   82  A    between atoms: _190  and  _192
REMARK   83  A    between atoms: _192  and  _193
REMARK   84  A    between atoms: _192  and  _195
REMARK   85  A    between atoms: _195  and  _196
REMARK   86  A    between atoms: _199  and  _201
REMARK   87  A    between atoms: _201  and  _202
REMARK   88  A    between atoms: _201  and  _204
REMARK   89  A    between atoms: _207  and  _209
REMARK   90  A    between atoms: _209  and  _210
REMARK   91  A    between atoms: _209  and  _212
REMARK   92  A    between atoms: _212  and  _213
REMARK   93  A    between atoms: _216  and  _218
REMARK   94  A    between atoms: _218  and  _219
REMARK   95  A    between atoms: _218  and  _221
REMARK   96  A    between atoms: _221  and  _222
REMARK   97  A    between atoms: _226  and  _227
REMARK   98  A    between atoms: _232  and  _234
REMARK   99  A    between atoms: _234  and  _235
REMARK  100  A    between atoms: _234  and  _237
REMARK  101  A    between atoms: _240  and  _242
REMARK  102  A    between atoms: _242  and  _243
REMARK  103  A    between atoms: _242  and  _245
REMARK  104  A    between atoms: _245  and  _246
REMARK  105  A    between atoms: _251  and  _253
REMARK  106  A    between atoms: _253  and  _254
REMARK  107  A    between atoms: _253  and  _256
REMARK  108  A    between atoms: _256  and  _257
REMARK  109  A    between atoms: _260  and  _262
REMARK  110  A    between atoms: _262  and  _263
REMARK  111  A    between atoms: _262  and  _265
REMARK  112  A    between atoms: _265  and  _266
REMARK  113  A    between atoms: _269  and  _271
REMARK  114  A    between atoms: _271  and  _272
REMARK  115  A    between atoms: _274  and  _276
REMARK  116  A    between atoms: _276  and  _277
REMARK  117  A    between atoms: _276  and  _279
REMARK  118  A    between atoms: _279  and  _280
REMARK  119  A    between atoms: _280  and  _281
REMARK  120  A    between atoms: _281  and  _282
REMARK  121  A    between atoms: _291  and  _293
REMARK  122  A    between atoms: _293  and  _294
REMARK  123  A    between atoms: _293  and  _296
REMARK  124  A    between atoms: _296  and  _297
REMARK  125  A    between atoms: _297  and  _298
REMARK  126  A    between atoms: _298  and  _299
REMARK  127  A    between atoms: _308  and  _310
REMARK  128  A    between atoms: _310  and  _311
REMARK  129  A    between atoms: _310  and  _313
REMARK  130  A    between atoms: _313  and  _314
REMARK  131  A    between atoms: _317  and  _319
REMARK  132  A    between atoms: _319  and  _320
REMARK  133  A    between atoms: _319  and  _322
REMARK  134  A    between atoms: _322  and  _323
REMARK  135  A    between atoms: _326  and  _328
REMARK  136  A    between atoms: _328  and  _329
REMARK  137  A    between atoms: _328  and  _331
REMARK  138  A    between atoms: _331  and  _332
REMARK  139  A    between atoms: _335  and  _337
REMARK  140  A    between atoms: _337  and  _338
REMARK  141  A    between atoms: _337  and  _340
REMARK  142  A    between atoms: _340  and  _341
REMARK  143  A    between atoms: _344  and  _346
REMARK  144  A    between atoms: _346  and  _347
REMARK  145  A    between atoms: _346  and  _349
REMARK  146  A    between atoms: _349  and  _350
REMARK  147  A    between atoms: _353  and  _355
REMARK  148  A    between atoms: _355  and  _356
REMARK  149  A    between atoms: _358  and  _360
REMARK  150  A    between atoms: _360  and  _361
REMARK  151  A    between atoms: _364  and  _366
REMARK  152  A    between atoms: _366  and  _367
REMARK  153  A    between atoms: _366  and  _369
REMARK  154  A    between atoms: _369  and  _370
REMARK  155  A    between atoms: _373  and  _375
REMARK  156  A    between atoms: _375  and  _376
REMARK  157  A    between atoms: _375  and  _378
REMARK  158  A    between atoms: _378  and  _379
REMARK  159  A    between atoms: _382  and  _384
REMARK  160  A    between atoms: _384  and  _385
REMARK  161  A    between atoms: _384  and  _387
REMARK  162  A    between atoms: _387  and  _388
REMARK  163  A    between atoms: _391  and  _393
REMARK  164  A    between atoms: _393  and  _394
REMARK  165  A    between atoms: _393  and  _396
REMARK  166  A    between atoms: _399  and  _401
REMARK  167  A    between atoms: _401  and  _402
REMARK  168  A    between atoms: _401  and  _404
REMARK  169  A    between atoms: _404  and  _405
REMARK  170  A    between atoms: _408  and  _410
REMARK  171  A    between atoms: _410  and  _411
REMARK  172  A    between atoms: _410  and  _413
REMARK  173  A    between atoms: _413  and  _414
REMARK  174  A    between atoms: _414  and  _415
REMARK  175  A    between atoms: _415  and  _416
REMARK  176  A    between atoms: _416  and  _417
REMARK  177  A    between atoms: _421  and  _423
REMARK  178  A    between atoms: _423  and  _424
REMARK  179  A    between atoms: _423  and  _426
REMARK  180  A    between atoms: _426  and  _427
REMARK  181  A    between atoms: _427  and  _428
REMARK  182  A    between atoms: _430  and  _432
REMARK  183  A    between atoms: _432  and  _433
REMARK  184  A    between atoms: _432  and  _435
REMARK  185  A    between atoms: _435  and  _436
REMARK  186  A    between atoms: _439  and  _441
REMARK  187  A    between atoms: _441  and  _442
REMARK  188  A    between atoms: _444  and  _446
REMARK  189  A    between atoms: _446  and  _447
REMARK  190  A    between atoms: _449  and  _451
REMARK  191  A    between atoms: _451  and  _452
REMARK  192  A    between atoms: _451  and  _454
REMARK  193  A    between atoms: _454  and  _455
REMARK  194  A    between atoms: _458  and  _460
REMARK  195  A    between atoms: _460  and  _461
REMARK  196  A    between atoms: _463  and  _465
REMARK  197  A    between atoms: _465  and  _466
REMARK  198  A    between atoms: _468  and  _470
REMARK  199  A    between atoms: _470  and  _471
REMARK  200  A    between atoms: _470  and  _473
REMARK  201  A    between atoms: _473  and  _474
REMARK  202  A    between atoms: _480  and  _482
REMARK  203  A    between atoms: _482  and  _483
REMARK  204  A    between atoms: _482  and  _485
REMARK  205  A    between atoms: _485  and  _486
REMARK  206  A    between atoms: _489  and  _491
REMARK  207  A    between atoms: _491  and  _492
REMARK  208  A    between atoms: _491  and  _494
REMARK  209  A    between atoms: _497  and  _499
REMARK  210  A    between atoms: _499  and  _500
REMARK  211  A    between atoms: _499  and  _502
REMARK  212  A    between atoms: _502  and  _503
REMARK  213  A    between atoms: _506  and  _508
REMARK  214  A    between atoms: _508  and  _509
REMARK  215  A    between atoms: _508  and  _511
REMARK  216  A    between atoms: _511  and  _512
REMARK  217  A    between atoms: _516  and  _517
REMARK  218  A    between atoms: _522  and  _524
REMARK  219  A    between atoms: _524  and  _525
REMARK  220  A    between atoms: _524  and  _527
REMARK  221  A    between atoms: _530  and  _532
REMARK  222  A    between atoms: _532  and  _533
REMARK  223  A    between atoms: _532  and  _535
REMARK  224  A    between atoms: _535  and  _536
REMARK  225  A    between atoms: _541  and  _543
REMARK  226  A    between atoms: _543  and  _544
REMARK  227  A    between atoms: _543  and  _546
REMARK  228  A    between atoms: _546  and  _547
REMARK  229  A    between atoms: _550  and  _552
REMARK  230  A    between atoms: _552  and  _553
REMARK  231  A    between atoms: _552  and  _555
REMARK  232  A    between atoms: _555  and  _556
REMARK  233  A    between atoms: _559  and  _561
REMARK  234  A    between atoms: _561  and  _562
REMARK  235  A    between atoms: _564  and  _566
REMARK  236  A    between atoms: _566  and  _567
REMARK  237  A    between atoms: _566  and  _569
REMARK  238  A    between atoms: _569  and  _570
REMARK  239  A    between atoms: _570  and  _571
REMARK  240  A    between atoms: _571  and  _572
REMARK                            x       y       z     vdW  Elec       q    Type
REMARK                         _______ _______ _______ _____ _____    ______ ____
ROOT
ATOM      1  O   HOH     1      22.203  14.664   7.508  0.00  0.00    +0.000 OA
ENDROOT
TORSDOF 0
REMARK  Name = ../refined-set-2016/1ebw/1ebw_pocket.pdb
REMARK  240 active torsions:
REMARK  status: ('A' for Active; 'I' for Inactive)
REMARK    1  A    between atoms: _1  and  _3
REMARK    2  A    between atoms: _3  and  _4
REMARK    3  A    between atoms: _3  and  _6
REMARK    4  A    between atoms: _6  and  _7
REMARK    5  A    between atoms: _7  and  _8
REMARK    6  A    between atoms: _8  and  _9
REMARK    7  A    between atoms: _18  and  _20
REMARK    8  A    between atoms: _20  and  _21
REMARK    9  A    between atoms: _20  and  _23
REMARK   10  A    between atoms: _23  and  _24
REMARK   11  A    between atoms: _27  and  _29
REMARK   12  A    between atoms: _29  and  _30
REMARK   13  A    between atoms: _29  and  _32
REMARK   14  A    between atoms: _32  and  _33
REMARK   15  A    between atoms: _36  and  _38
REMARK   16  A    between atoms: _38  and  _39
REMARK   17  A    between atoms: _38  and  _41
REMARK   18  A    between atoms: _41  and  _42
REMARK   19  A    between atoms: _45  and  _47
REMARK   20  A    between atoms: _47  and  _48
REMARK   21  A    between atoms: _47  and  _50
REMARK   22  A    between atoms: _50  and  _51
REMARK   23  A    between atoms: _54  and  _56
REMARK   24  A    between atoms: _56  and  _57
REMARK   25  A    between atoms: _56  and  _59
REMARK   26  A    between atoms: _59  and  _60
REMARK   27  A    between atoms: _63  and  _65
REMARK   28  A    between atoms: _65  and  _66
REMARK   29  A    between atoms: _68  and  _70
REMARK   30  A    between atoms: _70  and  _71
REMARK   31  A    between atoms: _74  and  _76
REMARK   32  A    between atoms: _76  and  _77
REMARK   33  A    between atoms: _76  and  _79
REMARK   34  A    between atoms: _79  and  _80
REMARK   35  A    between atoms: _83  and  _85
REMARK   36  A    between atoms: _85  and  _86
REMARK   37  A    between atoms: _85  and  _88
REMARK   38  A    between atoms: _88  and  _89
REMARK   39  A    between atoms: _92  and  _94
REMARK   40  A    between atoms: _94  and  _95
REMARK   41  A    between atoms: _94  and  _97
REMARK   42  A    between atoms: _97  and  _98
REMARK   43  A    between atoms: _101  and  _103
REMARK   44  A    between atoms: _103  and  _104
REMARK   45  A    between atoms: _103  and  _106
REMARK   46  A    between atoms: _109  and  _111
REMARK   47  A    between atoms: _111  and  _112
REMARK   48  A    between atoms: _111  and  _114
REMARK   49  A    between atoms: _114  and  _115
REMARK   50  A    between atoms: _118  and  _120
REMARK   51  A    between atoms: _120  and  _121
REMARK   52  A    between atoms: _120  and  _123
REMARK   53  A    between atoms: _123  and  _124
REMARK   54  A    between atoms: _124  and  _125
REMARK   55  A    between atoms: _125  and  _126
REMARK   56  A    between atoms: _126  and  _127
REMARK   57  A    between atoms: _131  and  _133
REMARK   58  A    between atoms: _133  and  _134
REMARK   59  A    between atoms: _133  and  _136
REMARK   60  A    between atoms: _136  and  _137
REMARK   61  A    between atoms: _137  and  _138
REMARK   62  A    between atoms: _140  and  _142
REMARK   63  A    between atoms: _142  and  _143
REMARK   64  A    between atoms: _142  and  _145
REMARK   65  A    between atoms: _145  and  _146
REMARK   66  A    between atoms: _149  and  _151
REMARK   67  A    between atoms: _151  and  _152
REMARK   68  A    between atoms: _154  and  _156
REMARK   69  A    between atoms: _156  and  _157
REMARK   70  A    between atoms: _159  and  _161
REMARK   71  A    between atoms: _161  and  _162
REMARK   72  A    between atoms: _161  and  _164
REMARK   73  A    between atoms: _164  and  _165
REMARK   74  A    between atoms: _168  and  _170
REMARK   75  A    between atoms: _170  and  _171
REMARK   76  A    between atoms: _173  and  _175
REMARK   77  A    between atoms: _175  and  _176
REMARK   78  A    between atoms: _178  and  _180
REMARK   79  A    between atoms: _180  and  _181
REMARK   80  A    between atoms: _180  and  _183
REMARK   81  A    between atoms: _183  and  _184
REMARK   82  A    between atoms: _190  and  _192
REMARK   83  A    between atoms: _192  and  _193
REMARK   84  A    between atoms: _192  and  _195
REMARK   85  A    between atoms: _195  and  _196
REMARK   86  A    between atoms: _199  and  _201
REMARK   87  A    between atoms: _201  and  _202
REMARK   88  A    between atoms: _201  and  _204
REMARK   89  A    between atoms: _207  and  _209
REMARK   90  A    between atoms: _209  and  _210
REMARK   91  A    between atoms: _209  and  _212
REMARK   92  A    between atoms: _212  and  _213
REMARK   93  A    between atoms: _216  and  _218
REMARK   94  A    between atoms: _218  and  _219
REMARK   95  A    between atoms: _218  and  _221
REMARK   96  A    between atoms: _221  and  _222
REMARK   97  A    between atoms: _226  and  _227
REMARK   98  A    between atoms: _232  and  _234
REMARK   99  A    between atoms: _234  and  _235
REMARK  100  A    between atoms: _234  and  _237
REMARK  101  A    between atoms: _240  and  _242
REMARK  102  A    between atoms: _242  and  _243
REMARK  103  A    between atoms: _242  and  _245
REMARK  104  A    between atoms: _245  and  _246
REMARK  105  A    between atoms: _251  and  _253
REMARK  106  A    between atoms: _253  and  _254
REMARK  107  A    between atoms: _253  and  _256
REMARK  108  A    between atoms: _256  and  _257
REMARK  109  A    between atoms: _260  and  _262
REMARK  110  A    between atoms: _262  and  _263
REMARK  111  A    between atoms: _262  and  _265
REMARK  112  A    between atoms: _265  and  _266
REMARK  113  A    between atoms: _269  and  _271
REMARK  114  A    between atoms: _271  and  _272
REMARK  115  A    between atoms: _274  and  _276
REMARK  116  A    between atoms: _276  and  _277
REMARK  117  A    between atoms: _276  and  _279
REMARK  118  A    between atoms: _279  and  _280
REMARK  119  A    between atoms: _280  and  _281
REMARK  120  A    between atoms: _281  and  _282
REMARK  121  A    between atoms: _291  and  _293
REMARK  122  A    between atoms: _293  and  _294
REMARK  123  A    between atoms: _293  and  _296
REMARK  124  A    between atoms: _296  and  _297
REMARK  125  A    between atoms: _297  and  _298
REMARK  126  A    between atoms: _298  and  _299
REMARK  127  A    between atoms: _308  and  _310
REMARK  128  A    between atoms: _310  and  _311
REMARK  129  A    between atoms: _310  and  _313
REMARK  130  A    between atoms: _313  and  _314
REMARK  131  A    between atoms: _317  and  _319
REMARK  132  A    between atoms: _319  and  _320
REMARK  133  A    between atoms: _319  and  _322
REMARK  134  A    between atoms: _322  and  _323
REMARK  135  A    between atoms: _326  and  _328
REMARK  136  A    between atoms: _328  and  _329
REMARK  137  A    between atoms: _328  and  _331
REMARK  138  A    between atoms: _331  and  _332
REMARK  139  A    between atoms: _335  and  _337
REMARK  140  A    between atoms: _337  and  _338
REMARK  141  A    between atoms: _337  and  _340
REMARK  142  A    between atoms: _340  and  _341
REMARK  143  A    between atoms: _344  and  _346
REMARK  144  A    between atoms: _346  and  _347
REMARK  145  A    between atoms: _346  and  _349
REMARK  146  A    between atoms: _349  and  _350
REMARK  147  A    between atoms: _353  and  _355
REMARK  148  A    between atoms: _355  and  _356
REMARK  149  A    between atoms: _358  and  _360
REMARK  150  A    between atoms: _360  and  _361
REMARK  151  A    between atoms: _364  and  _366
REMARK  152  A    between atoms: _366  and  _367
REMARK  153  A    between atoms: _366  and  _369
REMARK  154  A    between atoms: _369  and  _370
REMARK  155  A    between atoms: _373  and  _375
REMARK  156  A    between atoms: _375  and  _376
REMARK  157  A    between atoms: _375  and  _378
REMARK  158  A    between atoms: _378  and  _379
REMARK  159  A    between atoms: _382  and  _384
REMARK  160  A    between atoms: _384  and  _385
REMARK  161  A    between atoms: _384  and  _387
REMARK  162  A    between atoms: _387  and  _388
REMARK  163  A    between atoms: _391  and  _393
REMARK  164  A    between atoms: _393  and  _394
REMARK  165  A    between atoms: _393  and  _396
REMARK  166  A    between atoms: _399  and  _401
REMARK  167  A    between atoms: _401  and  _402
REMARK  168  A    between atoms: _401  and  _404
REMARK  169  A    between atoms: _404  and  _405
REMARK  170  A    between atoms: _408  and  _410
REMARK  171  A    between atoms: _410  and  _411
REMARK  172  A    between atoms: _410  and  _413
REMARK  173  A    between atoms: _413  and  _414
REMARK  174  A    between atoms: _414  and  _415
REMARK  175  A    between atoms: _415  and  _416
REMARK  176  A    between atoms: _416  and  _417
REMARK  177  A    between atoms: _421  and  _423
REMARK  178  A    between atoms: _423  and  _424
REMARK  179  A    between atoms: _423  and  _426
REMARK  180  A    between atoms: _426  and  _427
REMARK  181  A    between atoms: _427  and  _428
REMARK  182  A    between atoms: _430  and  _432
REMARK  183  A    between atoms: _432  and  _433
REMARK  184  A    between atoms: _432  and  _435
REMARK  185  A    between atoms: _435  and  _436
REMARK  186  A    between atoms: _439  and  _441
REMARK  187  A    between atoms: _441  and  _442
REMARK  188  A    between atoms: _444  and  _446
REMARK  189  A    between atoms: _446  and  _447
REMARK  190  A    between atoms: _449  and  _451
REMARK  191  A    between atoms: _451  and  _452
REMARK  192  A    between atoms: _451  and  _454
REMARK  193  A    between atoms: _454  and  _455
REMARK  194  A    between atoms: _458  and  _460
REMARK  195  A    between atoms: _460  and  _461
REMARK  196  A    between atoms: _463  and  _465
REMARK  197  A    between atoms: _465  and  _466
REMARK  198  A    between atoms: _468  and  _470
REMARK  199  A    between atoms: _470  and  _471
REMARK  200  A    between atoms: _470  and  _473
REMARK  201  A    between atoms: _473  and  _474
REMARK  202  A    between atoms: _480  and  _482
REMARK  203  A    between atoms: _482  and  _483
REMARK  204  A    between atoms: _482  and  _485
REMARK  205  A    between atoms: _485  and  _486
REMARK  206  A    between atoms: _489  and  _491
REMARK  207  A    between atoms: _491  and  _492
REMARK  208  A    between atoms: _491  and  _494
REMARK  209  A    between atoms: _497  and  _499
REMARK  210  A    between atoms: _499  and  _500
REMARK  211  A    between atoms: _499  and  _502
REMARK  212  A    between atoms: _502  and  _503
REMARK  213  A    between atoms: _506  and  _508
REMARK  214  A    between atoms: _508  and  _509
REMARK  215  A    between atoms: _508  and  _511
REMARK  216  A    between atoms: _511  and  _512
REMARK  217  A    between atoms: _516  and  _517
REMARK  218  A    between atoms: _522  and  _524
REMARK  219  A    between atoms: _524  and  _525
REMARK  220  A    between atoms: _524  and  _527
REMARK  221  A    between atoms: _530  and  _532
REMARK  222  A    between atoms: _532  and  _533
REMARK  223  A    between atoms: _532  and  _535
REMARK  224  A    between atoms: _535  and  _536
REMARK  225  A    between atoms: _541  and  _543
REMARK  226  A    between atoms: _543  and  _544
REMARK  227  A    between atoms: _543  and  _546
REMARK  228  A    between atoms: _546  and  _547
REMARK  229  A    between atoms: _550  and  _552
REMARK  230  A    between atoms: _552  and  _553
REMARK  231  A    between atoms: _552  and  _555
REMARK  232  A    between atoms: _555  and  _556
REMARK  233  A    between atoms: _559  and  _561
REMARK  234  A    between atoms: _561  and  _562
REMARK  235  A    between atoms: _564  and  _566
REMARK  236  A    between atoms: _566  and  _567
REMARK  237  A    between atoms: _566  and  _569
REMARK  238  A    between atoms: _569  and  _570
REMARK  239  A    between atoms: _570  and  _571
REMARK  240  A    between atoms: _571  and  _572
REMARK                            x       y       z     vdW  Elec       q    Type
REMARK                         _______ _______ _______ _____ _____    ______ ____
ROOT
ATOM      1  O   HOH     1      25.418  19.615   0.344  0.00  0.00    +0.000 OA
ENDROOT
TORSDOF 0
REMARK  Name = ../refined-set-2016/1ebw/1ebw_pocket.pdb
REMARK  240 active torsions:
REMARK  status: ('A' for Active; 'I' for Inactive)
REMARK    1  A    between atoms: _1  and  _3
REMARK    2  A    between atoms: _3  and  _4
REMARK    3  A    between atoms: _3  and  _6
REMARK    4  A    between atoms: _6  and  _7
REMARK    5  A    between atoms: _7  and  _8
REMARK    6  A    between atoms: _8  and  _9
REMARK    7  A    between atoms: _18  and  _20
REMARK    8  A    between atoms: _20  and  _21
REMARK    9  A    between atoms: _20  and  _23
REMARK   10  A    between atoms: _23  and  _24
REMARK   11  A    between atoms: _27  and  _29
REMARK   12  A    between atoms: _29  and  _30
REMARK   13  A    between atoms: _29  and  _32
REMARK   14  A    between atoms: _32  and  _33
REMARK   15  A    between atoms: _36  and  _38
REMARK   16  A    between atoms: _38  and  _39
REMARK   17  A    between atoms: _38  and  _41
REMARK   18  A    between atoms: _41  and  _42
REMARK   19  A    between atoms: _45  and  _47
REMARK   20  A    between atoms: _47  and  _48
REMARK   21  A    between atoms: _47  and  _50
REMARK   22  A    between atoms: _50  and  _51
REMARK   23  A    between atoms: _54  and  _56
REMARK   24  A    between atoms: _56  and  _57
REMARK   25  A    between atoms: _56  and  _59
REMARK   26  A    between atoms: _59  and  _60
REMARK   27  A    between atoms: _63  and  _65
REMARK   28  A    between atoms: _65  and  _66
REMARK   29  A    between atoms: _68  and  _70
REMARK   30  A    between atoms: _70  and  _71
REMARK   31  A    between atoms: _74  and  _76
REMARK   32  A    between atoms: _76  and  _77
REMARK   33  A    between atoms: _76  and  _79
REMARK   34  A    between atoms: _79  and  _80
REMARK   35  A    between atoms: _83  and  _85
REMARK   36  A    between atoms: _85  and  _86
REMARK   37  A    between atoms: _85  and  _88
REMARK   38  A    between atoms: _88  and  _89
REMARK   39  A    between atoms: _92  and  _94
REMARK   40  A    between atoms: _94  and  _95
REMARK   41  A    between atoms: _94  and  _97
REMARK   42  A    between atoms: _97  and  _98
REMARK   43  A    between atoms: _101  and  _103
REMARK   44  A    between atoms: _103  and  _104
REMARK   45  A    between atoms: _103  and  _106
REMARK   46  A    between atoms: _109  and  _111
REMARK   47  A    between atoms: _111  and  _112
REMARK   48  A    between atoms: _111  and  _114
REMARK   49  A    between atoms: _114  and  _115
REMARK   50  A    between atoms: _118  and  _120
REMARK   51  A    between atoms: _120  and  _121
REMARK   52  A    between atoms: _120  and  _123
REMARK   53  A    between atoms: _123  and  _124
REMARK   54  A    between atoms: _124  and  _125
REMARK   55  A    between atoms: _125  and  _126
REMARK   56  A    between atoms: _126  and  _127
REMARK   57  A    between atoms: _131  and  _133
REMARK   58  A    between atoms: _133  and  _134
REMARK   59  A    between atoms: _133  and  _136
REMARK   60  A    between atoms: _136  and  _137
REMARK   61  A    between atoms: _137  and  _138
REMARK   62  A    between atoms: _140  and  _142
REMARK   63  A    between atoms: _142  and  _143
REMARK   64  A    between atoms: _142  and  _145
REMARK   65  A    between atoms: _145  and  _146
REMARK   66  A    between atoms: _149  and  _151
REMARK   67  A    between atoms: _151  and  _152
REMARK   68  A    between atoms: _154  and  _156
REMARK   69  A    between atoms: _156  and  _157
REMARK   70  A    between atoms: _159  and  _161
REMARK   71  A    between atoms: _161  and  _162
REMARK   72  A    between atoms: _161  and  _164
REMARK   73  A    between atoms: _164  and  _165
REMARK   74  A    between atoms: _168  and  _170
REMARK   75  A    between atoms: _170  and  _171
REMARK   76  A    between atoms: _173  and  _175
REMARK   77  A    between atoms: _175  and  _176
REMARK   78  A    between atoms: _178  and  _180
REMARK   79  A    between atoms: _180  and  _181
REMARK   80  A    between atoms: _180  and  _183
REMARK   81  A    between atoms: _183  and  _184
REMARK   82  A    between atoms: _190  and  _192
REMARK   83  A    between atoms: _192  and  _193
REMARK   84  A    between atoms: _192  and  _195
REMARK   85  A    between atoms: _195  and  _196
REMARK   86  A    between atoms: _199  and  _201
REMARK   87  A    between atoms: _201  and  _202
REMARK   88  A    between atoms: _201  and  _204
REMARK   89  A    between atoms: _207  and  _209
REMARK   90  A    between atoms: _209  and  _210
REMARK   91  A    between atoms: _209  and  _212
REMARK   92  A    between atoms: _212  and  _213
REMARK   93  A    between atoms: _216  and  _218
REMARK   94  A    between atoms: _218  and  _219
REMARK   95  A    between atoms: _218  and  _221
REMARK   96  A    between atoms: _221  and  _222
REMARK   97  A    between atoms: _226  and  _227
REMARK   98  A    between atoms: _232  and  _234
REMARK   99  A    between atoms: _234  and  _235
REMARK  100  A    between atoms: _234  and  _237
REMARK  101  A    between atoms: _240  and  _242
REMARK  102  A    between atoms: _242  and  _243
REMARK  103  A    between atoms: _242  and  _245
REMARK  104  A    between atoms: _245  and  _246
REMARK  105  A    between atoms: _251  and  _253
REMARK  106  A    between atoms: _253  and  _254
REMARK  107  A    between atoms: _253  and  _256
REMARK  108  A    between atoms: _256  and  _257
REMARK  109  A    between atoms: _260  and  _262
REMARK  110  A    between atoms: _262  and  _263
REMARK  111  A    between atoms: _262  and  _265
REMARK  112  A    between atoms: _265  and  _266
REMARK  113  A    between atoms: _269  and  _271
REMARK  114  A    between atoms: _271  and  _272
REMARK  115  A    between atoms: _274  and  _276
REMARK  116  A    between atoms: _276  and  _277
REMARK  117  A    between atoms: _276  and  _279
REMARK  118  A    between atoms: _279  and  _280
REMARK  119  A    between atoms: _280  and  _281
REMARK  120  A    between atoms: _281  and  _282
REMARK  121  A    between atoms: _291  and  _293
REMARK  122  A    between atoms: _293  and  _294
REMARK  123  A    between atoms: _293  and  _296
REMARK  124  A    between atoms: _296  and  _297
REMARK  125  A    between atoms: _297  and  _298
REMARK  126  A    between atoms: _298  and  _299
REMARK  127  A    between atoms: _308  and  _310
REMARK  128  A    between atoms: _310  and  _311
REMARK  129  A    between atoms: _310  and  _313
REMARK  130  A    between atoms: _313  and  _314
REMARK  131  A    between atoms: _317  and  _319
REMARK  132  A    between atoms: _319  and  _320
REMARK  133  A    between atoms: _319  and  _322
REMARK  134  A    between atoms: _322  and  _323
REMARK  135  A    between atoms: _326  and  _328
REMARK  136  A    between atoms: _328  and  _329
REMARK  137  A    between atoms: _328  and  _331
REMARK  138  A    between atoms: _331  and  _332
REMARK  139  A    between atoms: _335  and  _337
REMARK  140  A    between atoms: _337  and  _338
REMARK  141  A    between atoms: _337  and  _340
REMARK  142  A    between atoms: _340  and  _341
REMARK  143  A    between atoms: _344  and  _346
REMARK  144  A    between atoms: _346  and  _347
REMARK  145  A    between atoms: _346  and  _349
REMARK  146  A    between atoms: _349  and  _350
REMARK  147  A    between atoms: _353  and  _355
REMARK  148  A    between atoms: _355  and  _356
REMARK  149  A    between atoms: _358  and  _360
REMARK  150  A    between atoms: _360  and  _361
REMARK  151  A    between atoms: _364  and  _366
REMARK  152  A    between atoms: _366  and  _367
REMARK  153  A    between atoms: _366  and  _369
REMARK  154  A    between atoms: _369  and  _370
REMARK  155  A    between atoms: _373  and  _375
REMARK  156  A    between atoms: _375  and  _376
REMARK  157  A    between atoms: _375  and  _378
REMARK  158  A    between atoms: _378  and  _379
REMARK  159  A    between atoms: _382  and  _384
REMARK  160  A    between atoms: _384  and  _385
REMARK  161  A    between atoms: _384  and  _387
REMARK  162  A    between atoms: _387  and  _388
REMARK  163  A    between atoms: _391  and  _393
REMARK  164  A    between atoms: _393  and  _394
REMARK  165  A    between atoms: _393  and  _396
REMARK  166  A    between atoms: _399  and  _401
REMARK  167  A    between atoms: _401  and  _402
REMARK  168  A    between atoms: _401  and  _404
REMARK  169  A    between atoms: _404  and  _405
REMARK  170  A    between atoms: _408  and  _410
REMARK  171  A    between atoms: _410  and  _411
REMARK  172  A    between atoms: _410  and  _413
REMARK  173  A    between atoms: _413  and  _414
REMARK  174  A    between atoms: _414  and  _415
REMARK  175  A    between atoms: _415  and  _416
REMARK  176  A    between atoms: _416  and  _417
REMARK  177  A    between atoms: _421  and  _423
REMARK  178  A    between atoms: _423  and  _424
REMARK  179  A    between atoms: _423  and  _426
REMARK  180  A    between atoms: _426  and  _427
REMARK  181  A    between atoms: _427  and  _428
REMARK  182  A    between atoms: _430  and  _432
REMARK  183  A    between atoms: _432  and  _433
REMARK  184  A    between atoms: _432  and  _435
REMARK  185  A    between atoms: _435  and  _436
REMARK  186  A    between atoms: _439  and  _441
REMARK  187  A    between atoms: _441  and  _442
REMARK  188  A    between atoms: _444  and  _446
REMARK  189  A    between atoms: _446  and  _447
REMARK  190  A    between atoms: _449  and  _451
REMARK  191  A    between atoms: _451  and  _452
REMARK  192  A    between atoms: _451  and  _454
REMARK  193  A    between atoms: _454  and  _455
REMARK  194  A    between atoms: _458  and  _460
REMARK  195  A    between atoms: _460  and  _461
REMARK  196  A    between atoms: _463  and  _465
REMARK  197  A    between atoms: _465  and  _466
REMARK  198  A    between atoms: _468  and  _470
REMARK  199  A    between atoms: _470  and  _471
REMARK  200  A    between atoms: _470  and  _473
REMARK  201  A    between atoms: _473  and  _474
REMARK  202  A    between atoms: _480  and  _482
REMARK  203  A    between atoms: _482  and  _483
REMARK  204  A    between atoms: _482  and  _485
REMARK  205  A    between atoms: _485  and  _486
REMARK  206  A    between atoms: _489  and  _491
REMARK  207  A    between atoms: _491  and  _492
REMARK  208  A    between atoms: _491  and  _494
REMARK  209  A    between atoms: _497  and  _499
REMARK  210  A    between atoms: _499  and  _500
REMARK  211  A    between atoms: _499  and  _502
REMARK  212  A    between atoms: _502  and  _503
REMARK  213  A    between atoms: _506  and  _508
REMARK  214  A    between atoms: _508  and  _509
REMARK  215  A    between atoms: _508  and  _511
REMARK  216  A    between atoms: _511  and  _512
REMARK  217  A    between atoms: _516  and  _517
REMARK  218  A    between atoms: _522  and  _524
REMARK  219  A    between atoms: _524  and  _525
REMARK  220  A    between atoms: _524  and  _527
REMARK  221  A    between atoms: _530  and  _532
REMARK  222  A    between atoms: _532  and  _533
REMARK  223  A    between atoms: _532  and  _535
REMARK  224  A    between atoms: _535  and  _536
REMARK  225  A    between atoms: _541  and  _543
REMARK  226  A    between atoms: _543  and  _544
REMARK  227  A    between atoms: _543  and  _546
REMARK  228  A    between atoms: _546  and  _547
REMARK  229  A    between atoms: _550  and  _552
REMARK  230  A    between atoms: _552  and  _553
REMARK  231  A    between atoms: _552  and  _555
REMARK  232  A    between atoms: _555  and  _556
REMARK  233  A    between atoms: _559  and  _561
REMARK  234  A    between atoms: _561  and  _562
REMARK  235  A    between atoms: _564  and  _566
REMARK  236  A    between atoms: _566  and  _567
REMARK  237  A    between atoms: _566  and  _569
REMARK  238  A    between atoms: _569  and  _570
REMARK  239  A    between atoms: _570  and  _571
REMARK  240  A    between atoms: _571  and  _572
REMARK                            x       y       z     vdW  Elec       q    Type
REMARK                         _______ _______ _______ _____ _____    ______ ____
ROOT
ATOM      1  O   HOH     1      20.246  15.061   4.216  0.00  0.00    +0.000 OA
ENDROOT
TORSDOF 0
REMARK  Name = ../refined-set-2016/1ebw/1ebw_pocket.pdb
REMARK  240 active torsions:
REMARK  status: ('A' for Active; 'I' for Inactive)
REMARK    1  A    between atoms: _1  and  _3
REMARK    2  A    between atoms: _3  and  _4
REMARK    3  A    between atoms: _3  and  _6
REMARK    4  A    between atoms: _6  and  _7
REMARK    5  A    between atoms: _7  and  _8
REMARK    6  A    between atoms: _8  and  _9
REMARK    7  A    between atoms: _18  and  _20
REMARK    8  A    between atoms: _20  and  _21
REMARK    9  A    between atoms: _20  and  _23
REMARK   10  A    between atoms: _23  and  _24
REMARK   11  A    between atoms: _27  and  _29
REMARK   12  A    between atoms: _29  and  _30
REMARK   13  A    between atoms: _29  and  _32
REMARK   14  A    between atoms: _32  and  _33
REMARK   15  A    between atoms: _36  and  _38
REMARK   16  A    between atoms: _38  and  _39
REMARK   17  A    between atoms: _38  and  _41
REMARK   18  A    between atoms: _41  and  _42
REMARK   19  A    between atoms: _45  and  _47
REMARK   20  A    between atoms: _47  and  _48
REMARK   21  A    between atoms: _47  and  _50
REMARK   22  A    between atoms: _50  and  _51
REMARK   23  A    between atoms: _54  and  _56
REMARK   24  A    between atoms: _56  and  _57
REMARK   25  A    between atoms: _56  and  _59
REMARK   26  A    between atoms: _59  and  _60
REMARK   27  A    between atoms: _63  and  _65
REMARK   28  A    between atoms: _65  and  _66
REMARK   29  A    between atoms: _68  and  _70
REMARK   30  A    between atoms: _70  and  _71
REMARK   31  A    between atoms: _74  and  _76
REMARK   32  A    between atoms: _76  and  _77
REMARK   33  A    between atoms: _76  and  _79
REMARK   34  A    between atoms: _79  and  _80
REMARK   35  A    between atoms: _83  and  _85
REMARK   36  A    between atoms: _85  and  _86
REMARK   37  A    between atoms: _85  and  _88
REMARK   38  A    between atoms: _88  and  _89
REMARK   39  A    between atoms: _92  and  _94
REMARK   40  A    between atoms: _94  and  _95
REMARK   41  A    between atoms: _94  and  _97
REMARK   42  A    between atoms: _97  and  _98
REMARK   43  A    between atoms: _101  and  _103
REMARK   44  A    between atoms: _103  and  _104
REMARK   45  A    between atoms: _103  and  _106
REMARK   46  A    between atoms: _109  and  _111
REMARK   47  A    between atoms: _111  and  _112
REMARK   48  A    between atoms: _111  and  _114
REMARK   49  A    between atoms: _114  and  _115
REMARK   50  A    between atoms: _118  and  _120
REMARK   51  A    between atoms: _120  and  _121
REMARK   52  A    between atoms: _120  and  _123
REMARK   53  A    between atoms: _123  and  _124
REMARK   54  A    between atoms: _124  and  _125
REMARK   55  A    between atoms: _125  and  _126
REMARK   56  A    between atoms: _126  and  _127
REMARK   57  A    between atoms: _131  and  _133
REMARK   58  A    between atoms: _133  and  _134
REMARK   59  A    between atoms: _133  and  _136
REMARK   60  A    between atoms: _136  and  _137
REMARK   61  A    between atoms: _137  and  _138
REMARK   62  A    between atoms: _140  and  _142
REMARK   63  A    between atoms: _142  and  _143
REMARK   64  A    between atoms: _142  and  _145
REMARK   65  A    between atoms: _145  and  _146
REMARK   66  A    between atoms: _149  and  _151
REMARK   67  A    between atoms: _151  and  _152
REMARK   68  A    between atoms: _154  and  _156
REMARK   69  A    between atoms: _156  and  _157
REMARK   70  A    between atoms: _159  and  _161
REMARK   71  A    between atoms: _161  and  _162
REMARK   72  A    between atoms: _161  and  _164
REMARK   73  A    between atoms: _164  and  _165
REMARK   74  A    between atoms: _168  and  _170
REMARK   75  A    between atoms: _170  and  _171
REMARK   76  A    between atoms: _173  and  _175
REMARK   77  A    between atoms: _175  and  _176
REMARK   78  A    between atoms: _178  and  _180
REMARK   79  A    between atoms: _180  and  _181
REMARK   80  A    between atoms: _180  and  _183
REMARK   81  A    between atoms: _183  and  _184
REMARK   82  A    between atoms: _190  and  _192
REMARK   83  A    between atoms: _192  and  _193
REMARK   84  A    between atoms: _192  and  _195
REMARK   85  A    between atoms: _195  and  _196
REMARK   86  A    between atoms: _199  and  _201
REMARK   87  A    between atoms: _201  and  _202
REMARK   88  A    between atoms: _201  and  _204
REMARK   89  A    between atoms: _207  and  _209
REMARK   90  A    between atoms: _209  and  _210
REMARK   91  A    between atoms: _209  and  _212
REMARK   92  A    between atoms: _212  and  _213
REMARK   93  A    between atoms: _216  and  _218
REMARK   94  A    between atoms: _218  and  _219
REMARK   95  A    between atoms: _218  and  _221
REMARK   96  A    between atoms: _221  and  _222
REMARK   97  A    between atoms: _226  and  _227
REMARK   98  A    between atoms: _232  and  _234
REMARK   99  A    between atoms: _234  and  _235
REMARK  100  A    between atoms: _234  and  _237
REMARK  101  A    between atoms: _240  and  _242
REMARK  102  A    between atoms: _242  and  _243
REMARK  103  A    between atoms: _242  and  _245
REMARK  104  A    between atoms: _245  and  _246
REMARK  105  A    between atoms: _251  and  _253
REMARK  106  A    between atoms: _253  and  _254
REMARK  107  A    between atoms: _253  and  _256
REMARK  108  A    between atoms: _256  and  _257
REMARK  109  A    between atoms: _260  and  _262
REMARK  110  A    between atoms: _262  and  _263
REMARK  111  A    between atoms: _262  and  _265
REMARK  112  A    between atoms: _265  and  _266
REMARK  113  A    between atoms: _269  and  _271
REMARK  114  A    between atoms: _271  and  _272
REMARK  115  A    between atoms: _274  and  _276
REMARK  116  A    between atoms: _276  and  _277
REMARK  117  A    between atoms: _276  and  _279
REMARK  118  A    between atoms: _279  and  _280
REMARK  119  A    between atoms: _280  and  _281
REMARK  120  A    between atoms: _281  and  _282
REMARK  121  A    between atoms: _291  and  _293
REMARK  122  A    between atoms: _293  and  _294
REMARK  123  A    between atoms: _293  and  _296
REMARK  124  A    between atoms: _296  and  _297
REMARK  125  A    between atoms: _297  and  _298
REMARK  126  A    between atoms: _298  and  _299
REMARK  127  A    between atoms: _308  and  _310
REMARK  128  A    between atoms: _310  and  _311
REMARK  129  A    between atoms: _310  and  _313
REMARK  130  A    between atoms: _313  and  _314
REMARK  131  A    between atoms: _317  and  _319
REMARK  132  A    between atoms: _319  and  _320
REMARK  133  A    between atoms: _319  and  _322
REMARK  134  A    between atoms: _322  and  _323
REMARK  135  A    between atoms: _326  and  _328
REMARK  136  A    between atoms: _328  and  _329
REMARK  137  A    between atoms: _328  and  _331
REMARK  138  A    between atoms: _331  and  _332
REMARK  139  A    between atoms: _335  and  _337
REMARK  140  A    between atoms: _337  and  _338
REMARK  141  A    between atoms: _337  and  _340
REMARK  142  A    between atoms: _340  and  _341
REMARK  143  A    between atoms: _344  and  _346
REMARK  144  A    between atoms: _346  and  _347
REMARK  145  A    between atoms: _346  and  _349
REMARK  146  A    between atoms: _349  and  _350
REMARK  147  A    between atoms: _353  and  _355
REMARK  148  A    between atoms: _355  and  _356
REMARK  149  A    between atoms: _358  and  _360
REMARK  150  A    between atoms: _360  and  _361
REMARK  151  A    between atoms: _364  and  _366
REMARK  152  A    between atoms: _366  and  _367
REMARK  153  A    between atoms: _366  and  _369
REMARK  154  A    between atoms: _369  and  _370
REMARK  155  A    between atoms: _373  and  _375
REMARK  156  A    between atoms: _375  and  _376
REMARK  157  A    between atoms: _375  and  _378
REMARK  158  A    between atoms: _378  and  _379
REMARK  159  A    between atoms: _382  and  _384
REMARK  160  A    between atoms: _384  and  _385
REMARK  161  A    between atoms: _384  and  _387
REMARK  162  A    between atoms: _387  and  _388
REMARK  163  A    between atoms: _391  and  _393
REMARK  164  A    between atoms: _393  and  _394
REMARK  165  A    between atoms: _393  and  _396
REMARK  166  A    between atoms: _399  and  _401
REMARK  167  A    between atoms: _401  and  _402
REMARK  168  A    between atoms: _401  and  _404
REMARK  169  A    between atoms: _404  and  _405
REMARK  170  A    between atoms: _408  and  _410
REMARK  171  A    between atoms: _410  and  _411
REMARK  172  A    between atoms: _410  and  _413
REMARK  173  A    between atoms: _413  and  _414
REMARK  174  A    between atoms: _414  and  _415
REMARK  175  A    between atoms: _415  and  _416
REMARK  176  A    between atoms: _416  and  _417
REMARK  177  A    between atoms: _421  and  _423
REMARK  178  A    between atoms: _423  and  _424
REMARK  179  A    between atoms: _423  and  _426
REMARK  180  A    between atoms: _426  and  _427
REMARK  181  A    between atoms: _427  and  _428
REMARK  182  A    between atoms: _430  and  _432
REMARK  183  A    between atoms: _432  and  _433
REMARK  184  A    between atoms: _432  and  _435
REMARK  185  A    between atoms: _435  and  _436
REMARK  186  A    between atoms: _439  and  _441
REMARK  187  A    between atoms: _441  and  _442
REMARK  188  A    between atoms: _444  and  _446
REMARK  189  A    between atoms: _446  and  _447
REMARK  190  A    between atoms: _449  and  _451
REMARK  191  A    between atoms: _451  and  _452
REMARK  192  A    between atoms: _451  and  _454
REMARK  193  A    between atoms: _454  and  _455
REMARK  194  A    between atoms: _458  and  _460
REMARK  195  A    between atoms: _460  and  _461
REMARK  196  A    between atoms: _463  and  _465
REMARK  197  A    between atoms: _465  and  _466
REMARK  198  A    between atoms: _468  and  _470
REMARK  199  A    between atoms: _470  and  _471
REMARK  200  A    between atoms: _470  and  _473
REMARK  201  A    between atoms: _473  and  _474
REMARK  202  A    between atoms: _480  and  _482
REMARK  203  A    between atoms: _482  and  _483
REMARK  204  A    between atoms: _482  and  _485
REMARK  205  A    between atoms: _485  and  _486
REMARK  206  A    between atoms: _489  and  _491
REMARK  207  A    between atoms: _491  and  _492
REMARK  208  A    between atoms: _491  and  _494
REMARK  209  A    between atoms: _497  and  _499
REMARK  210  A    between atoms: _499  and  _500
REMARK  211  A    between atoms: _499  and  _502
REMARK  212  A    between atoms: _502  and  _503
REMARK  213  A    between atoms: _506  and  _508
REMARK  214  A    between atoms: _508  and  _509
REMARK  215  A    between atoms: _508  and  _511
REMARK  216  A    between atoms: _511  and  _512
REMARK  217  A    between atoms: _516  and  _517
REMARK  218  A    between atoms: _522  and  _524
REMARK  219  A    between atoms: _524  and  _525
REMARK  220  A    between atoms: _524  and  _527
REMARK  221  A    between atoms: _530  and  _532
REMARK  222  A    between atoms: _532  and  _533
REMARK  223  A    between atoms: _532  and  _535
REMARK  224  A    between atoms: _535  and  _536
REMARK  225  A    between atoms: _541  and  _543
REMARK  226  A    between atoms: _543  and  _544
REMARK  227  A    between atoms: _543  and  _546
REMARK  228  A    between atoms: _546  and  _547
REMARK  229  A    between atoms: _550  and  _552
REMARK  230  A    between atoms: _552  and  _553
REMARK  231  A    between atoms: _552  and  _555
REMARK  232  A    between atoms: _555  and  _556
REMARK  233  A    between atoms: _559  and  _561
REMARK  234  A    between atoms: _561  and  _562
REMARK  235  A    between atoms: _564  and  _566
REMARK  236  A    between atoms: _566  and  _567
REMARK  237  A    between atoms: _566  and  _569
REMARK  238  A    between atoms: _569  and  _570
REMARK  239  A    between atoms: _570  and  _571
REMARK  240  A    between atoms: _571  and  _572
REMARK                            x       y       z     vdW  Elec       q    Type
REMARK                         _______ _______ _______ _____ _____    ______ ____
ROOT
ATOM      1  O   HOH     1      22.508  15.168  -2.091  0.00  0.00    +0.000 OA
ENDROOT
TORSDOF 0
REMARK  Name = ../refined-set-2016/1ebw/1ebw_pocket.pdb
REMARK  240 active torsions:
REMARK  status: ('A' for Active; 'I' for Inactive)
REMARK    1  A    between atoms: _1  and  _3
REMARK    2  A    between atoms: _3  and  _4
REMARK    3  A    between atoms: _3  and  _6
REMARK    4  A    between atoms: _6  and  _7
REMARK    5  A    between atoms: _7  and  _8
REMARK    6  A    between atoms: _8  and  _9
REMARK    7  A    between atoms: _18  and  _20
REMARK    8  A    between atoms: _20  and  _21
REMARK    9  A    between atoms: _20  and  _23
REMARK   10  A    between atoms: _23  and  _24
REMARK   11  A    between atoms: _27  and  _29
REMARK   12  A    between atoms: _29  and  _30
REMARK   13  A    between atoms: _29  and  _32
REMARK   14  A    between atoms: _32  and  _33
REMARK   15  A    between atoms: _36  and  _38
REMARK   16  A    between atoms: _38  and  _39
REMARK   17  A    between atoms: _38  and  _41
REMARK   18  A    between atoms: _41  and  _42
REMARK   19  A    between atoms: _45  and  _47
REMARK   20  A    between atoms: _47  and  _48
REMARK   21  A    between atoms: _47  and  _50
REMARK   22  A    between atoms: _50  and  _51
REMARK   23  A    between atoms: _54  and  _56
REMARK   24  A    between atoms: _56  and  _57
REMARK   25  A    between atoms: _56  and  _59
REMARK   26  A    between atoms: _59  and  _60
REMARK   27  A    between atoms: _63  and  _65
REMARK   28  A    between atoms: _65  and  _66
REMARK   29  A    between atoms: _68  and  _70
REMARK   30  A    between atoms: _70  and  _71
REMARK   31  A    between atoms: _74  and  _76
REMARK   32  A    between atoms: _76  and  _77
REMARK   33  A    between atoms: _76  and  _79
REMARK   34  A    between atoms: _79  and  _80
REMARK   35  A    between atoms: _83  and  _85
REMARK   36  A    between atoms: _85  and  _86
REMARK   37  A    between atoms: _85  and  _88
REMARK   38  A    between atoms: _88  and  _89
REMARK   39  A    between atoms: _92  and  _94
REMARK   40  A    between atoms: _94  and  _95
REMARK   41  A    between atoms: _94  and  _97
REMARK   42  A    between atoms: _97  and  _98
REMARK   43  A    between atoms: _101  and  _103
REMARK   44  A    between atoms: _103  and  _104
REMARK   45  A    between atoms: _103  and  _106
REMARK   46  A    between atoms: _109  and  _111
REMARK   47  A    between atoms: _111  and  _112
REMARK   48  A    between atoms: _111  and  _114
REMARK   49  A    between atoms: _114  and  _115
REMARK   50  A    between atoms: _118  and  _120
REMARK   51  A    between atoms: _120  and  _121
REMARK   52  A    between atoms: _120  and  _123
REMARK   53  A    between atoms: _123  and  _124
REMARK   54  A    between atoms: _124  and  _125
REMARK   55  A    between atoms: _125  and  _126
REMARK   56  A    between atoms: _126  and  _127
REMARK   57  A    between atoms: _131  and  _133
REMARK   58  A    between atoms: _133  and  _134
REMARK   59  A    between atoms: _133  and  _136
REMARK   60  A    between atoms: _136  and  _137
REMARK   61  A    between atoms: _137  and  _138
REMARK   62  A    between atoms: _140  and  _142
REMARK   63  A    between atoms: _142  and  _143
REMARK   64  A    between atoms: _142  and  _145
REMARK   65  A    between atoms: _145  and  _146
REMARK   66  A    between atoms: _149  and  _151
REMARK   67  A    between atoms: _151  and  _152
REMARK   68  A    between atoms: _154  and  _156
REMARK   69  A    between atoms: _156  and  _157
REMARK   70  A    between atoms: _159  and  _161
REMARK   71  A    between atoms: _161  and  _162
REMARK   72  A    between atoms: _161  and  _164
REMARK   73  A    between atoms: _164  and  _165
REMARK   74  A    between atoms: _168  and  _170
REMARK   75  A    between atoms: _170  and  _171
REMARK   76  A    between atoms: _173  and  _175
REMARK   77  A    between atoms: _175  and  _176
REMARK   78  A    between atoms: _178  and  _180
REMARK   79  A    between atoms: _180  and  _181
REMARK   80  A    between atoms: _180  and  _183
REMARK   81  A    between atoms: _183  and  _184
REMARK   82  A    between atoms: _190  and  _192
REMARK   83  A    between atoms: _192  and  _193
REMARK   84  A    between atoms: _192  and  _195
REMARK   85  A    between atoms: _195  and  _196
REMARK   86  A    between atoms: _199  and  _201
REMARK   87  A    between atoms: _201  and  _202
REMARK   88  A    between atoms: _201  and  _204
REMARK   89  A    between atoms: _207  and  _209
REMARK   90  A    between atoms: _209  and  _210
REMARK   91  A    between atoms: _209  and  _212
REMARK   92  A    between atoms: _212  and  _213
REMARK   93  A    between atoms: _216  and  _218
REMARK   94  A    between atoms: _218  and  _219
REMARK   95  A    between atoms: _218  and  _221
REMARK   96  A    between atoms: _221  and  _222
REMARK   97  A    between atoms: _226  and  _227
REMARK   98  A    between atoms: _232  and  _234
REMARK   99  A    between atoms: _234  and  _235
REMARK  100  A    between atoms: _234  and  _237
REMARK  101  A    between atoms: _240  and  _242
REMARK  102  A    between atoms: _242  and  _243
REMARK  103  A    between atoms: _242  and  _245
REMARK  104  A    between atoms: _245  and  _246
REMARK  105  A    between atoms: _251  and  _253
REMARK  106  A    between atoms: _253  and  _254
REMARK  107  A    between atoms: _253  and  _256
REMARK  108  A    between atoms: _256  and  _257
REMARK  109  A    between atoms: _260  and  _262
REMARK  110  A    between atoms: _262  and  _263
REMARK  111  A    between atoms: _262  and  _265
REMARK  112  A    between atoms: _265  and  _266
REMARK  113  A    between atoms: _269  and  _271
REMARK  114  A    between atoms: _271  and  _272
REMARK  115  A    between atoms: _274  and  _276
REMARK  116  A    between atoms: _276  and  _277
REMARK  117  A    between atoms: _276  and  _279
REMARK  118  A    between atoms: _279  and  _280
REMARK  119  A    between atoms: _280  and  _281
REMARK  120  A    between atoms: _281  and  _282
REMARK  121  A    between atoms: _291  and  _293
REMARK  122  A    between atoms: _293  and  _294
REMARK  123  A    between atoms: _293  and  _296
REMARK  124  A    between atoms: _296  and  _297
REMARK  125  A    between atoms: _297  and  _298
REMARK  126  A    between atoms: _298  and  _299
REMARK  127  A    between atoms: _308  and  _310
REMARK  128  A    between atoms: _310  and  _311
REMARK  129  A    between atoms: _310  and  _313
REMARK  130  A    between atoms: _313  and  _314
REMARK  131  A    between atoms: _317  and  _319
REMARK  132  A    between atoms: _319  and  _320
REMARK  133  A    between atoms: _319  and  _322
REMARK  134  A    between atoms: _322  and  _323
REMARK  135  A    between atoms: _326  and  _328
REMARK  136  A    between atoms: _328  and  _329
REMARK  137  A    between atoms: _328  and  _331
REMARK  138  A    between atoms: _331  and  _332
REMARK  139  A    between atoms: _335  and  _337
REMARK  140  A    between atoms: _337  and  _338
REMARK  141  A    between atoms: _337  and  _340
REMARK  142  A    between atoms: _340  and  _341
REMARK  143  A    between atoms: _344  and  _346
REMARK  144  A    between atoms: _346  and  _347
REMARK  145  A    between atoms: _346  and  _349
REMARK  146  A    between atoms: _349  and  _350
REMARK  147  A    between atoms: _353  and  _355
REMARK  148  A    between atoms: _355  and  _356
REMARK  149  A    between atoms: _358  and  _360
REMARK  150  A    between atoms: _360  and  _361
REMARK  151  A    between atoms: _364  and  _366
REMARK  152  A    between atoms: _366  and  _367
REMARK  153  A    between atoms: _366  and  _369
REMARK  154  A    between atoms: _369  and  _370
REMARK  155  A    between atoms: _373  and  _375
REMARK  156  A    between atoms: _375  and  _376
REMARK  157  A    between atoms: _375  and  _378
REMARK  158  A    between atoms: _378  and  _379
REMARK  159  A    between atoms: _382  and  _384
REMARK  160  A    between atoms: _384  and  _385
REMARK  161  A    between atoms: _384  and  _387
REMARK  162  A    between atoms: _387  and  _388
REMARK  163  A    between atoms: _391  and  _393
REMARK  164  A    between atoms: _393  and  _394
REMARK  165  A    between atoms: _393  and  _396
REMARK  166  A    between atoms: _399  and  _401
REMARK  167  A    between atoms: _401  and  _402
REMARK  168  A    between atoms: _401  and  _404
REMARK  169  A    between atoms: _404  and  _405
REMARK  170  A    between atoms: _408  and  _410
REMARK  171  A    between atoms: _410  and  _411
REMARK  172  A    between atoms: _410  and  _413
REMARK  173  A    between atoms: _413  and  _414
REMARK  174  A    between atoms: _414  and  _415
REMARK  175  A    between atoms: _415  and  _416
REMARK  176  A    between atoms: _416  and  _417
REMARK  177  A    between atoms: _421  and  _423
REMARK  178  A    between atoms: _423  and  _424
REMARK  179  A    between atoms: _423  and  _426
REMARK  180  A    between atoms: _426  and  _427
REMARK  181  A    between atoms: _427  and  _428
REMARK  182  A    between atoms: _430  and  _432
REMARK  183  A    between atoms: _432  and  _433
REMARK  184  A    between atoms: _432  and  _435
REMARK  185  A    between atoms: _435  and  _436
REMARK  186  A    between atoms: _439  and  _441
REMARK  187  A    between atoms: _441  and  _442
REMARK  188  A    between atoms: _444  and  _446
REMARK  189  A    between atoms: _446  and  _447
REMARK  190  A    between atoms: _449  and  _451
REMARK  191  A    between atoms: _451  and  _452
REMARK  192  A    between atoms: _451  and  _454
REMARK  193  A    between atoms: _454  and  _455
REMARK  194  A    between atoms: _458  and  _460
REMARK  195  A    between atoms: _460  and  _461
REMARK  196  A    between atoms: _463  and  _465
REMARK  197  A    between atoms: _465  and  _466
REMARK  198  A    between atoms: _468  and  _470
REMARK  199  A    between atoms: _470  and  _471
REMARK  200  A    between atoms: _470  and  _473
REMARK  201  A    between atoms: _473  and  _474
REMARK  202  A    between atoms: _480  and  _482
REMARK  203  A    between atoms: _482  and  _483
REMARK  204  A    between atoms: _482  and  _485
REMARK  205  A    between atoms: _485  and  _486
REMARK  206  A    between atoms: _489  and  _491
REMARK  207  A    between atoms: _491  and  _492
REMARK  208  A    between atoms: _491  and  _494
REMARK  209  A    between atoms: _497  and  _499
REMARK  210  A    between atoms: _499  and  _500
REMARK  211  A    between atoms: _499  and  _502
REMARK  212  A    between atoms: _502  and  _503
REMARK  213  A    between atoms: _506  and  _508
REMARK  214  A    between atoms: _508  and  _509
REMARK  215  A    between atoms: _508  and  _511
REMARK  216  A    between atoms: _511  and  _512
REMARK  217  A    between atoms: _516  and  _517
REMARK  218  A    between atoms: _522  and  _524
REMARK  219  A    between atoms: _524  and  _525
REMARK  220  A    between atoms: _524  and  _527
REMARK  221  A    between atoms: _530  and  _532
REMARK  222  A    between atoms: _532  and  _533
REMARK  223  A    between atoms: _532  and  _535
REMARK  224  A    between atoms: _535  and  _536
REMARK  225  A    between atoms: _541  and  _543
REMARK  226  A    between atoms: _543  and  _544
REMARK  227  A    between atoms: _543  and  _546
REMARK  228  A    between atoms: _546  and  _547
REMARK  229  A    between atoms: _550  and  _552
REMARK  230  A    between atoms: _552  and  _553
REMARK  231  A    between atoms: _552  and  _555
REMARK  232  A    between atoms: _555  and  _556
REMARK  233  A    between atoms: _559  and  _561
REMARK  234  A    between atoms: _561  and  _562
REMARK  235  A    between atoms: _564  and  _566
REMARK  236  A    between atoms: _566  and  _567
REMARK  237  A    between atoms: _566  and  _569
REMARK  238  A    between atoms: _569  and  _570
REMARK  239  A    between atoms: _570  and  _571
REMARK  240  A    between atoms: _571  and  _572
REMARK                            x       y       z     vdW  Elec       q    Type
REMARK                         _______ _______ _______ _____ _____    ______ ____
ROOT
ATOM      1  O   HOH     1      22.582  15.609   4.954  0.00  0.00    +0.000 OA
ENDROOT
TORSDOF 0
REMARK  Name = ../refined-set-2016/1ebw/1ebw_pocket.pdb
REMARK  240 active torsions:
REMARK  status: ('A' for Active; 'I' for Inactive)
REMARK    1  A    between atoms: _1  and  _3
REMARK    2  A    between atoms: _3  and  _4
REMARK    3  A    between atoms: _3  and  _6
REMARK    4  A    between atoms: _6  and  _7
REMARK    5  A    between atoms: _7  and  _8
REMARK    6  A    between atoms: _8  and  _9
REMARK    7  A    between atoms: _18  and  _20
REMARK    8  A    between atoms: _20  and  _21
REMARK    9  A    between atoms: _20  and  _23
REMARK   10  A    between atoms: _23  and  _24
REMARK   11  A    between atoms: _27  and  _29
REMARK   12  A    between atoms: _29  and  _30
REMARK   13  A    between atoms: _29  and  _32
REMARK   14  A    between atoms: _32  and  _33
REMARK   15  A    between atoms: _36  and  _38
REMARK   16  A    between atoms: _38  and  _39
REMARK   17  A    between atoms: _38  and  _41
REMARK   18  A    between atoms: _41  and  _42
REMARK   19  A    between atoms: _45  and  _47
REMARK   20  A    between atoms: _47  and  _48
REMARK   21  A    between atoms: _47  and  _50
REMARK   22  A    between atoms: _50  and  _51
REMARK   23  A    between atoms: _54  and  _56
REMARK   24  A    between atoms: _56  and  _57
REMARK   25  A    between atoms: _56  and  _59
REMARK   26  A    between atoms: _59  and  _60
REMARK   27  A    between atoms: _63  and  _65
REMARK   28  A    between atoms: _65  and  _66
REMARK   29  A    between atoms: _68  and  _70
REMARK   30  A    between atoms: _70  and  _71
REMARK   31  A    between atoms: _74  and  _76
REMARK   32  A    between atoms: _76  and  _77
REMARK   33  A    between atoms: _76  and  _79
REMARK   34  A    between atoms: _79  and  _80
REMARK   35  A    between atoms: _83  and  _85
REMARK   36  A    between atoms: _85  and  _86
REMARK   37  A    between atoms: _85  and  _88
REMARK   38  A    between atoms: _88  and  _89
REMARK   39  A    between atoms: _92  and  _94
REMARK   40  A    between atoms: _94  and  _95
REMARK   41  A    between atoms: _94  and  _97
REMARK   42  A    between atoms: _97  and  _98
REMARK   43  A    between atoms: _101  and  _103
REMARK   44  A    between atoms: _103  and  _104
REMARK   45  A    between atoms: _103  and  _106
REMARK   46  A    between atoms: _109  and  _111
REMARK   47  A    between atoms: _111  and  _112
REMARK   48  A    between atoms: _111  and  _114
REMARK   49  A    between atoms: _114  and  _115
REMARK   50  A    between atoms: _118  and  _120
REMARK   51  A    between atoms: _120  and  _121
REMARK   52  A    between atoms: _120  and  _123
REMARK   53  A    between atoms: _123  and  _124
REMARK   54  A    between atoms: _124  and  _125
REMARK   55  A    between atoms: _125  and  _126
REMARK   56  A    between atoms: _126  and  _127
REMARK   57  A    between atoms: _131  and  _133
REMARK   58  A    between atoms: _133  and  _134
REMARK   59  A    between atoms: _133  and  _136
REMARK   60  A    between atoms: _136  and  _137
REMARK   61  A    between atoms: _137  and  _138
REMARK   62  A    between atoms: _140  and  _142
REMARK   63  A    between atoms: _142  and  _143
REMARK   64  A    between atoms: _142  and  _145
REMARK   65  A    between atoms: _145  and  _146
REMARK   66  A    between atoms: _149  and  _151
REMARK   67  A    between atoms: _151  and  _152
REMARK   68  A    between atoms: _154  and  _156
REMARK   69  A    between atoms: _156  and  _157
REMARK   70  A    between atoms: _159  and  _161
REMARK   71  A    between atoms: _161  and  _162
REMARK   72  A    between atoms: _161  and  _164
REMARK   73  A    between atoms: _164  and  _165
REMARK   74  A    between atoms: _168  and  _170
REMARK   75  A    between atoms: _170  and  _171
REMARK   76  A    between atoms: _173  and  _175
REMARK   77  A    between atoms: _175  and  _176
REMARK   78  A    between atoms: _178  and  _180
REMARK   79  A    between atoms: _180  and  _181
REMARK   80  A    between atoms: _180  and  _183
REMARK   81  A    between atoms: _183  and  _184
REMARK   82  A    between atoms: _190  and  _192
REMARK   83  A    between atoms: _192  and  _193
REMARK   84  A    between atoms: _192  and  _195
REMARK   85  A    between atoms: _195  and  _196
REMARK   86  A    between atoms: _199  and  _201
REMARK   87  A    between atoms: _201  and  _202
REMARK   88  A    between atoms: _201  and  _204
REMARK   89  A    between atoms: _207  and  _209
REMARK   90  A    between atoms: _209  and  _210
REMARK   91  A    between atoms: _209  and  _212
REMARK   92  A    between atoms: _212  and  _213
REMARK   93  A    between atoms: _216  and  _218
REMARK   94  A    between atoms: _218  and  _219
REMARK   95  A    between atoms: _218  and  _221
REMARK   96  A    between atoms: _221  and  _222
REMARK   97  A    between atoms: _226  and  _227
REMARK   98  A    between atoms: _232  and  _234
REMARK   99  A    between atoms: _234  and  _235
REMARK  100  A    between atoms: _234  and  _237
REMARK  101  A    between atoms: _240  and  _242
REMARK  102  A    between atoms: _242  and  _243
REMARK  103  A    between atoms: _242  and  _245
REMARK  104  A    between atoms: _245  and  _246
REMARK  105  A    between atoms: _251  and  _253
REMARK  106  A    between atoms: _253  and  _254
REMARK  107  A    between atoms: _253  and  _256
REMARK  108  A    between atoms: _256  and  _257
REMARK  109  A    between atoms: _260  and  _262
REMARK  110  A    between atoms: _262  and  _263
REMARK  111  A    between atoms: _262  and  _265
REMARK  112  A    between atoms: _265  and  _266
REMARK  113  A    between atoms: _269  and  _271
REMARK  114  A    between atoms: _271  and  _272
REMARK  115  A    between atoms: _274  and  _276
REMARK  116  A    between atoms: _276  and  _277
REMARK  117  A    between atoms: _276  and  _279
REMARK  118  A    between atoms: _279  and  _280
REMARK  119  A    between atoms: _280  and  _281
REMARK  120  A    between atoms: _281  and  _282
REMARK  121  A    between atoms: _291  and  _293
REMARK  122  A    between atoms: _293  and  _294
REMARK  123  A    between atoms: _293  and  _296
REMARK  124  A    between atoms: _296  and  _297
REMARK  125  A    between atoms: _297  and  _298
REMARK  126  A    between atoms: _298  and  _299
REMARK  127  A    between atoms: _308  and  _310
REMARK  128  A    between atoms: _310  and  _311
REMARK  129  A    between atoms: _310  and  _313
REMARK  130  A    between atoms: _313  and  _314
REMARK  131  A    between atoms: _317  and  _319
REMARK  132  A    between atoms: _319  and  _320
REMARK  133  A    between atoms: _319  and  _322
REMARK  134  A    between atoms: _322  and  _323
REMARK  135  A    between atoms: _326  and  _328
REMARK  136  A    between atoms: _328  and  _329
REMARK  137  A    between atoms: _328  and  _331
REMARK  138  A    between atoms: _331  and  _332
REMARK  139  A    between atoms: _335  and  _337
REMARK  140  A    between atoms: _337  and  _338
REMARK  141  A    between atoms: _337  and  _340
REMARK  142  A    between atoms: _340  and  _341
REMARK  143  A    between atoms: _344  and  _346
REMARK  144  A    between atoms: _346  and  _347
REMARK  145  A    between atoms: _346  and  _349
REMARK  146  A    between atoms: _349  and  _350
REMARK  147  A    between atoms: _353  and  _355
REMARK  148  A    between atoms: _355  and  _356
REMARK  149  A    between atoms: _358  and  _360
REMARK  150  A    between atoms: _360  and  _361
REMARK  151  A    between atoms: _364  and  _366
REMARK  152  A    between atoms: _366  and  _367
REMARK  153  A    between atoms: _366  and  _369
REMARK  154  A    between atoms: _369  and  _370
REMARK  155  A    between atoms: _373  and  _375
REMARK  156  A    between atoms: _375  and  _376
REMARK  157  A    between atoms: _375  and  _378
REMARK  158  A    between atoms: _378  and  _379
REMARK  159  A    between atoms: _382  and  _384
REMARK  160  A    between atoms: _384  and  _385
REMARK  161  A    between atoms: _384  and  _387
REMARK  162  A    between atoms: _387  and  _388
REMARK  163  A    between atoms: _391  and  _393
REMARK  164  A    between atoms: _393  and  _394
REMARK  165  A    between atoms: _393  and  _396
REMARK  166  A    between atoms: _399  and  _401
REMARK  167  A    between atoms: _401  and  _402
REMARK  168  A    between atoms: _401  and  _404
REMARK  169  A    between atoms: _404  and  _405
REMARK  170  A    between atoms: _408  and  _410
REMARK  171  A    between atoms: _410  and  _411
REMARK  172  A    between atoms: _410  and  _413
REMARK  173  A    between atoms: _413  and  _414
REMARK  174  A    between atoms: _414  and  _415
REMARK  175  A    between atoms: _415  and  _416
REMARK  176  A    between atoms: _416  and  _417
REMARK  177  A    between atoms: _421  and  _423
REMARK  178  A    between atoms: _423  and  _424
REMARK  179  A    between atoms: _423  and  _426
REMARK  180  A    between atoms: _426  and  _427
REMARK  181  A    between atoms: _427  and  _428
REMARK  182  A    between atoms: _430  and  _432
REMARK  183  A    between atoms: _432  and  _433
REMARK  184  A    between atoms: _432  and  _435
REMARK  185  A    between atoms: _435  and  _436
REMARK  186  A    between atoms: _439  and  _441
REMARK  187  A    between atoms: _441  and  _442
REMARK  188  A    between atoms: _444  and  _446
REMARK  189  A    between atoms: _446  and  _447
REMARK  190  A    between atoms: _449  and  _451
REMARK  191  A    between atoms: _451  and  _452
REMARK  192  A    between atoms: _451  and  _454
REMARK  193  A    between atoms: _454  and  _455
REMARK  194  A    between atoms: _458  and  _460
REMARK  195  A    between atoms: _460  and  _461
REMARK  196  A    between atoms: _463  and  _465
REMARK  197  A    between atoms: _465  and  _466
REMARK  198  A    between atoms: _468  and  _470
REMARK  199  A    between atoms: _470  and  _471
REMARK  200  A    between atoms: _470  and  _473
REMARK  201  A    between atoms: _473  and  _474
REMARK  202  A    between atoms: _480  and  _482
REMARK  203  A    between atoms: _482  and  _483
REMARK  204  A    between atoms: _482  and  _485
REMARK  205  A    between atoms: _485  and  _486
REMARK  206  A    between atoms: _489  and  _491
REMARK  207  A    between atoms: _491  and  _492
REMARK  208  A    between atoms: _491  and  _494
REMARK  209  A    between atoms: _497  and  _499
REMARK  210  A    between atoms: _499  and  _500
REMARK  211  A    between atoms: _499  and  _502
REMARK  212  A    between atoms: _502  and  _503
REMARK  213  A    between atoms: _506  and  _508
REMARK  214  A    between atoms: _508  and  _509
REMARK  215  A    between atoms: _508  and  _511
REMARK  216  A    between atoms: _511  and  _512
REMARK  217  A    between atoms: _516  and  _517
REMARK  218  A    between atoms: _522  and  _524
REMARK  219  A    between atoms: _524  and  _525
REMARK  220  A    between atoms: _524  and  _527
REMARK  221  A    between atoms: _530  and  _532
REMARK  222  A    between atoms: _532  and  _533
REMARK  223  A    between atoms: _532  and  _535
REMARK  224  A    between atoms: _535  and  _536
REMARK  225  A    between atoms: _541  and  _543
REMARK  226  A    between atoms: _543  and  _544
REMARK  227  A    between atoms: _543  and  _546
REMARK  228  A    between atoms: _546  and  _547
REMARK  229  A    between atoms: _550  and  _552
REMARK  230  A    between atoms: _552  and  _553
REMARK  231  A    between atoms: _552  and  _555
REMARK  232  A    between atoms: _555  and  _556
REMARK  233  A    between atoms: _559  and  _561
REMARK  234  A    between atoms: _561  and  _562
REMARK  235  A    between atoms: _564  and  _566
REMARK  236  A    between atoms: _566  and  _567
REMARK  237  A    between atoms: _566  and  _569
REMARK  238  A    between atoms: _569  and  _570
REMARK  239  A    between atoms: _570  and  _571
REMARK  240  A    between atoms: _571  and  _572
REMARK                            x       y       z     vdW  Elec       q    Type
REMARK                         _______ _______ _______ _____ _____    ______ ____
ROOT
ATOM      1  O   HOH     1      14.132  15.897  11.273  0.00  0.00    +0.000 OA
ENDROOT
TORSDOF 0
REMARK  Name = ../refined-set-2016/1ebw/1ebw_pocket.pdb
REMARK  240 active torsions:
REMARK  status: ('A' for Active; 'I' for Inactive)
REMARK    1  A    between atoms: _1  and  _3
REMARK    2  A    between atoms: _3  and  _4
REMARK    3  A    between atoms: _3  and  _6
REMARK    4  A    between atoms: _6  and  _7
REMARK    5  A    between atoms: _7  and  _8
REMARK    6  A    between atoms: _8  and  _9
REMARK    7  A    between atoms: _18  and  _20
REMARK    8  A    between atoms: _20  and  _21
REMARK    9  A    between atoms: _20  and  _23
REMARK   10  A    between atoms: _23  and  _24
REMARK   11  A    between atoms: _27  and  _29
REMARK   12  A    between atoms: _29  and  _30
REMARK   13  A    between atoms: _29  and  _32
REMARK   14  A    between atoms: _32  and  _33
REMARK   15  A    between atoms: _36  and  _38
REMARK   16  A    between atoms: _38  and  _39
REMARK   17  A    between atoms: _38  and  _41
REMARK   18  A    between atoms: _41  and  _42
REMARK   19  A    between atoms: _45  and  _47
REMARK   20  A    between atoms: _47  and  _48
REMARK   21  A    between atoms: _47  and  _50
REMARK   22  A    between atoms: _50  and  _51
REMARK   23  A    between atoms: _54  and  _56
REMARK   24  A    between atoms: _56  and  _57
REMARK   25  A    between atoms: _56  and  _59
REMARK   26  A    between atoms: _59  and  _60
REMARK   27  A    between atoms: _63  and  _65
REMARK   28  A    between atoms: _65  and  _66
REMARK   29  A    between atoms: _68  and  _70
REMARK   30  A    between atoms: _70  and  _71
REMARK   31  A    between atoms: _74  and  _76
REMARK   32  A    between atoms: _76  and  _77
REMARK   33  A    between atoms: _76  and  _79
REMARK   34  A    between atoms: _79  and  _80
REMARK   35  A    between atoms: _83  and  _85
REMARK   36  A    between atoms: _85  and  _86
REMARK   37  A    between atoms: _85  and  _88
REMARK   38  A    between atoms: _88  and  _89
REMARK   39  A    between atoms: _92  and  _94
REMARK   40  A    between atoms: _94  and  _95
REMARK   41  A    between atoms: _94  and  _97
REMARK   42  A    between atoms: _97  and  _98
REMARK   43  A    between atoms: _101  and  _103
REMARK   44  A    between atoms: _103  and  _104
REMARK   45  A    between atoms: _103  and  _106
REMARK   46  A    between atoms: _109  and  _111
REMARK   47  A    between atoms: _111  and  _112
REMARK   48  A    between atoms: _111  and  _114
REMARK   49  A    between atoms: _114  and  _115
REMARK   50  A    between atoms: _118  and  _120
REMARK   51  A    between atoms: _120  and  _121
REMARK   52  A    between atoms: _120  and  _123
REMARK   53  A    between atoms: _123  and  _124
REMARK   54  A    between atoms: _124  and  _125
REMARK   55  A    between atoms: _125  and  _126
REMARK   56  A    between atoms: _126  and  _127
REMARK   57  A    between atoms: _131  and  _133
REMARK   58  A    between atoms: _133  and  _134
REMARK   59  A    between atoms: _133  and  _136
REMARK   60  A    between atoms: _136  and  _137
REMARK   61  A    between atoms: _137  and  _138
REMARK   62  A    between atoms: _140  and  _142
REMARK   63  A    between atoms: _142  and  _143
REMARK   64  A    between atoms: _142  and  _145
REMARK   65  A    between atoms: _145  and  _146
REMARK   66  A    between atoms: _149  and  _151
REMARK   67  A    between atoms: _151  and  _152
REMARK   68  A    between atoms: _154  and  _156
REMARK   69  A    between atoms: _156  and  _157
REMARK   70  A    between atoms: _159  and  _161
REMARK   71  A    between atoms: _161  and  _162
REMARK   72  A    between atoms: _161  and  _164
REMARK   73  A    between atoms: _164  and  _165
REMARK   74  A    between atoms: _168  and  _170
REMARK   75  A    between atoms: _170  and  _171
REMARK   76  A    between atoms: _173  and  _175
REMARK   77  A    between atoms: _175  and  _176
REMARK   78  A    between atoms: _178  and  _180
REMARK   79  A    between atoms: _180  and  _181
REMARK   80  A    between atoms: _180  and  _183
REMARK   81  A    between atoms: _183  and  _184
REMARK   82  A    between atoms: _190  and  _192
REMARK   83  A    between atoms: _192  and  _193
REMARK   84  A    between atoms: _192  and  _195
REMARK   85  A    between atoms: _195  and  _196
REMARK   86  A    between atoms: _199  and  _201
REMARK   87  A    between atoms: _201  and  _202
REMARK   88  A    between atoms: _201  and  _204
REMARK   89  A    between atoms: _207  and  _209
REMARK   90  A    between atoms: _209  and  _210
REMARK   91  A    between atoms: _209  and  _212
REMARK   92  A    between atoms: _212  and  _213
REMARK   93  A    between atoms: _216  and  _218
REMARK   94  A    between atoms: _218  and  _219
REMARK   95  A    between atoms: _218  and  _221
REMARK   96  A    between atoms: _221  and  _222
REMARK   97  A    between atoms: _226  and  _227
REMARK   98  A    between atoms: _232  and  _234
REMARK   99  A    between atoms: _234  and  _235
REMARK  100  A    between atoms: _234  and  _237
REMARK  101  A    between atoms: _240  and  _242
REMARK  102  A    between atoms: _242  and  _243
REMARK  103  A    between atoms: _242  and  _245
REMARK  104  A    between atoms: _245  and  _246
REMARK  105  A    between atoms: _251  and  _253
REMARK  106  A    between atoms: _253  and  _254
REMARK  107  A    between atoms: _253  and  _256
REMARK  108  A    between atoms: _256  and  _257
REMARK  109  A    between atoms: _260  and  _262
REMARK  110  A    between atoms: _262  and  _263
REMARK  111  A    between atoms: _262  and  _265
REMARK  112  A    between atoms: _265  and  _266
REMARK  113  A    between atoms: _269  and  _271
REMARK  114  A    between atoms: _271  and  _272
REMARK  115  A    between atoms: _274  and  _276
REMARK  116  A    between atoms: _276  and  _277
REMARK  117  A    between atoms: _276  and  _279
REMARK  118  A    between atoms: _279  and  _280
REMARK  119  A    between atoms: _280  and  _281
REMARK  120  A    between atoms: _281  and  _282
REMARK  121  A    between atoms: _291  and  _293
REMARK  122  A    between atoms: _293  and  _294
REMARK  123  A    between atoms: _293  and  _296
REMARK  124  A    between atoms: _296  and  _297
REMARK  125  A    between atoms: _297  and  _298
REMARK  126  A    between atoms: _298  and  _299
REMARK  127  A    between atoms: _308  and  _310
REMARK  128  A    between atoms: _310  and  _311
REMARK  129  A    between atoms: _310  and  _313
REMARK  130  A    between atoms: _313  and  _314
REMARK  131  A    between atoms: _317  and  _319
REMARK  132  A    between atoms: _319  and  _320
REMARK  133  A    between atoms: _319  and  _322
REMARK  134  A    between atoms: _322  and  _323
REMARK  135  A    between atoms: _326  and  _328
REMARK  136  A    between atoms: _328  and  _329
REMARK  137  A    between atoms: _328  and  _331
REMARK  138  A    between atoms: _331  and  _332
REMARK  139  A    between atoms: _335  and  _337
REMARK  140  A    between atoms: _337  and  _338
REMARK  141  A    between atoms: _337  and  _340
REMARK  142  A    between atoms: _340  and  _341
REMARK  143  A    between atoms: _344  and  _346
REMARK  144  A    between atoms: _346  and  _347
REMARK  145  A    between atoms: _346  and  _349
REMARK  146  A    between atoms: _349  and  _350
REMARK  147  A    between atoms: _353  and  _355
REMARK  148  A    between atoms: _355  and  _356
REMARK  149  A    between atoms: _358  and  _360
REMARK  150  A    between atoms: _360  and  _361
REMARK  151  A    between atoms: _364  and  _366
REMARK  152  A    between atoms: _366  and  _367
REMARK  153  A    between atoms: _366  and  _369
REMARK  154  A    between atoms: _369  and  _370
REMARK  155  A    between atoms: _373  and  _375
REMARK  156  A    between atoms: _375  and  _376
REMARK  157  A    between atoms: _375  and  _378
REMARK  158  A    between atoms: _378  and  _379
REMARK  159  A    between atoms: _382  and  _384
REMARK  160  A    between atoms: _384  and  _385
REMARK  161  A    between atoms: _384  and  _387
REMARK  162  A    between atoms: _387  and  _388
REMARK  163  A    between atoms: _391  and  _393
REMARK  164  A    between atoms: _393  and  _394
REMARK  165  A    between atoms: _393  and  _396
REMARK  166  A    between atoms: _399  and  _401
REMARK  167  A    between atoms: _401  and  _402
REMARK  168  A    between atoms: _401  and  _404
REMARK  169  A    between atoms: _404  and  _405
REMARK  170  A    between atoms: _408  and  _410
REMARK  171  A    between atoms: _410  and  _411
REMARK  172  A    between atoms: _410  and  _413
REMARK  173  A    between atoms: _413  and  _414
REMARK  174  A    between atoms: _414  and  _415
REMARK  175  A    between atoms: _415  and  _416
REMARK  176  A    between atoms: _416  and  _417
REMARK  177  A    between atoms: _421  and  _423
REMARK  178  A    between atoms: _423  and  _424
REMARK  179  A    between atoms: _423  and  _426
REMARK  180  A    between atoms: _426  and  _427
REMARK  181  A    between atoms: _427  and  _428
REMARK  182  A    between atoms: _430  and  _432
REMARK  183  A    between atoms: _432  and  _433
REMARK  184  A    between atoms: _432  and  _435
REMARK  185  A    between atoms: _435  and  _436
REMARK  186  A    between atoms: _439  and  _441
REMARK  187  A    between atoms: _441  and  _442
REMARK  188  A    between atoms: _444  and  _446
REMARK  189  A    between atoms: _446  and  _447
REMARK  190  A    between atoms: _449  and  _451
REMARK  191  A    between atoms: _451  and  _452
REMARK  192  A    between atoms: _451  and  _454
REMARK  193  A    between atoms: _454  and  _455
REMARK  194  A    between atoms: _458  and  _460
REMARK  195  A    between atoms: _460  and  _461
REMARK  196  A    between atoms: _463  and  _465
REMARK  197  A    between atoms: _465  and  _466
REMARK  198  A    between atoms: _468  and  _470
REMARK  199  A    between atoms: _470  and  _471
REMARK  200  A    between atoms: _470  and  _473
REMARK  201  A    between atoms: _473  and  _474
REMARK  202  A    between atoms: _480  and  _482
REMARK  203  A    between atoms: _482  and  _483
REMARK  204  A    between atoms: _482  and  _485
REMARK  205  A    between atoms: _485  and  _486
REMARK  206  A    between atoms: _489  and  _491
REMARK  207  A    between atoms: _491  and  _492
REMARK  208  A    between atoms: _491  and  _494
REMARK  209  A    between atoms: _497  and  _499
REMARK  210  A    between atoms: _499  and  _500
REMARK  211  A    between atoms: _499  and  _502
REMARK  212  A    between atoms: _502  and  _503
REMARK  213  A    between atoms: _506  and  _508
REMARK  214  A    between atoms: _508  and  _509
REMARK  215  A    between atoms: _508  and  _511
REMARK  216  A    between atoms: _511  and  _512
REMARK  217  A    between atoms: _516  and  _517
REMARK  218  A    between atoms: _522  and  _524
REMARK  219  A    between atoms: _524  and  _525
REMARK  220  A    between atoms: _524  and  _527
REMARK  221  A    between atoms: _530  and  _532
REMARK  222  A    between atoms: _532  and  _533
REMARK  223  A    between atoms: _532  and  _535
REMARK  224  A    between atoms: _535  and  _536
REMARK  225  A    between atoms: _541  and  _543
REMARK  226  A    between atoms: _543  and  _544
REMARK  227  A    between atoms: _543  and  _546
REMARK  228  A    between atoms: _546  and  _547
REMARK  229  A    between atoms: _550  and  _552
REMARK  230  A    between atoms: _552  and  _553
REMARK  231  A    between atoms: _552  and  _555
REMARK  232  A    between atoms: _555  and  _556
REMARK  233  A    between atoms: _559  and  _561
REMARK  234  A    between atoms: _561  and  _562
REMARK  235  A    between atoms: _564  and  _566
REMARK  236  A    between atoms: _566  and  _567
REMARK  237  A    between atoms: _566  and  _569
REMARK  238  A    between atoms: _569  and  _570
REMARK  239  A    between atoms: _570  and  _571
REMARK  240  A    between atoms: _571  and  _572
REMARK                            x       y       z     vdW  Elec       q    Type
REMARK                         _______ _______ _______ _____ _____    ______ ____
ROOT
ATOM      1  O   HOH     1       3.937  26.273  -0.008  0.00  0.00    +0.000 OA
ENDROOT
TORSDOF 0
REMARK  Name = ../refined-set-2016/1ebw/1ebw_pocket.pdb
REMARK  240 active torsions:
REMARK  status: ('A' for Active; 'I' for Inactive)
REMARK    1  A    between atoms: _1  and  _3
REMARK    2  A    between atoms: _3  and  _4
REMARK    3  A    between atoms: _3  and  _6
REMARK    4  A    between atoms: _6  and  _7
REMARK    5  A    between atoms: _7  and  _8
REMARK    6  A    between atoms: _8  and  _9
REMARK    7  A    between atoms: _18  and  _20
REMARK    8  A    between atoms: _20  and  _21
REMARK    9  A    between atoms: _20  and  _23
REMARK   10  A    between atoms: _23  and  _24
REMARK   11  A    between atoms: _27  and  _29
REMARK   12  A    between atoms: _29  and  _30
REMARK   13  A    between atoms: _29  and  _32
REMARK   14  A    between atoms: _32  and  _33
REMARK   15  A    between atoms: _36  and  _38
REMARK   16  A    between atoms: _38  and  _39
REMARK   17  A    between atoms: _38  and  _41
REMARK   18  A    between atoms: _41  and  _42
REMARK   19  A    between atoms: _45  and  _47
REMARK   20  A    between atoms: _47  and  _48
REMARK   21  A    between atoms: _47  and  _50
REMARK   22  A    between atoms: _50  and  _51
REMARK   23  A    between atoms: _54  and  _56
REMARK   24  A    between atoms: _56  and  _57
REMARK   25  A    between atoms: _56  and  _59
REMARK   26  A    between atoms: _59  and  _60
REMARK   27  A    between atoms: _63  and  _65
REMARK   28  A    between atoms: _65  and  _66
REMARK   29  A    between atoms: _68  and  _70
REMARK   30  A    between atoms: _70  and  _71
REMARK   31  A    between atoms: _74  and  _76
REMARK   32  A    between atoms: _76  and  _77
REMARK   33  A    between atoms: _76  and  _79
REMARK   34  A    between atoms: _79  and  _80
REMARK   35  A    between atoms: _83  and  _85
REMARK   36  A    between atoms: _85  and  _86
REMARK   37  A    between atoms: _85  and  _88
REMARK   38  A    between atoms: _88  and  _89
REMARK   39  A    between atoms: _92  and  _94
REMARK   40  A    between atoms: _94  and  _95
REMARK   41  A    between atoms: _94  and  _97
REMARK   42  A    between atoms: _97  and  _98
REMARK   43  A    between atoms: _101  and  _103
REMARK   44  A    between atoms: _103  and  _104
REMARK   45  A    between atoms: _103  and  _106
REMARK   46  A    between atoms: _109  and  _111
REMARK   47  A    between atoms: _111  and  _112
REMARK   48  A    between atoms: _111  and  _114
REMARK   49  A    between atoms: _114  and  _115
REMARK   50  A    between atoms: _118  and  _120
REMARK   51  A    between atoms: _120  and  _121
REMARK   52  A    between atoms: _120  and  _123
REMARK   53  A    between atoms: _123  and  _124
REMARK   54  A    between atoms: _124  and  _125
REMARK   55  A    between atoms: _125  and  _126
REMARK   56  A    between atoms: _126  and  _127
REMARK   57  A    between atoms: _131  and  _133
REMARK   58  A    between atoms: _133  and  _134
REMARK   59  A    between atoms: _133  and  _136
REMARK   60  A    between atoms: _136  and  _137
REMARK   61  A    between atoms: _137  and  _138
REMARK   62  A    between atoms: _140  and  _142
REMARK   63  A    between atoms: _142  and  _143
REMARK   64  A    between atoms: _142  and  _145
REMARK   65  A    between atoms: _145  and  _146
REMARK   66  A    between atoms: _149  and  _151
REMARK   67  A    between atoms: _151  and  _152
REMARK   68  A    between atoms: _154  and  _156
REMARK   69  A    between atoms: _156  and  _157
REMARK   70  A    between atoms: _159  and  _161
REMARK   71  A    between atoms: _161  and  _162
REMARK   72  A    between atoms: _161  and  _164
REMARK   73  A    between atoms: _164  and  _165
REMARK   74  A    between atoms: _168  and  _170
REMARK   75  A    between atoms: _170  and  _171
REMARK   76  A    between atoms: _173  and  _175
REMARK   77  A    between atoms: _175  and  _176
REMARK   78  A    between atoms: _178  and  _180
REMARK   79  A    between atoms: _180  and  _181
REMARK   80  A    between atoms: _180  and  _183
REMARK   81  A    between atoms: _183  and  _184
REMARK   82  A    between atoms: _190  and  _192
REMARK   83  A    between atoms: _192  and  _193
REMARK   84  A    between atoms: _192  and  _195
REMARK   85  A    between atoms: _195  and  _196
REMARK   86  A    between atoms: _199  and  _201
REMARK   87  A    between atoms: _201  and  _202
REMARK   88  A    between atoms: _201  and  _204
REMARK   89  A    between atoms: _207  and  _209
REMARK   90  A    between atoms: _209  and  _210
REMARK   91  A    between atoms: _209  and  _212
REMARK   92  A    between atoms: _212  and  _213
REMARK   93  A    between atoms: _216  and  _218
REMARK   94  A    between atoms: _218  and  _219
REMARK   95  A    between atoms: _218  and  _221
REMARK   96  A    between atoms: _221  and  _222
REMARK   97  A    between atoms: _226  and  _227
REMARK   98  A    between atoms: _232  and  _234
REMARK   99  A    between atoms: _234  and  _235
REMARK  100  A    between atoms: _234  and  _237
REMARK  101  A    between atoms: _240  and  _242
REMARK  102  A    between atoms: _242  and  _243
REMARK  103  A    between atoms: _242  and  _245
REMARK  104  A    between atoms: _245  and  _246
REMARK  105  A    between atoms: _251  and  _253
REMARK  106  A    between atoms: _253  and  _254
REMARK  107  A    between atoms: _253  and  _256
REMARK  108  A    between atoms: _256  and  _257
REMARK  109  A    between atoms: _260  and  _262
REMARK  110  A    between atoms: _262  and  _263
REMARK  111  A    between atoms: _262  and  _265
REMARK  112  A    between atoms: _265  and  _266
REMARK  113  A    between atoms: _269  and  _271
REMARK  114  A    between atoms: _271  and  _272
REMARK  115  A    between atoms: _274  and  _276
REMARK  116  A    between atoms: _276  and  _277
REMARK  117  A    between atoms: _276  and  _279
REMARK  118  A    between atoms: _279  and  _280
REMARK  119  A    between atoms: _280  and  _281
REMARK  120  A    between atoms: _281  and  _282
REMARK  121  A    between atoms: _291  and  _293
REMARK  122  A    between atoms: _293  and  _294
REMARK  123  A    between atoms: _293  and  _296
REMARK  124  A    between atoms: _296  and  _297
REMARK  125  A    between atoms: _297  and  _298
REMARK  126  A    between atoms: _298  and  _299
REMARK  127  A    between atoms: _308  and  _310
REMARK  128  A    between atoms: _310  and  _311
REMARK  129  A    between atoms: _310  and  _313
REMARK  130  A    between atoms: _313  and  _314
REMARK  131  A    between atoms: _317  and  _319
REMARK  132  A    between atoms: _319  and  _320
REMARK  133  A    between atoms: _319  and  _322
REMARK  134  A    between atoms: _322  and  _323
REMARK  135  A    between atoms: _326  and  _328
REMARK  136  A    between atoms: _328  and  _329
REMARK  137  A    between atoms: _328  and  _331
REMARK  138  A    between atoms: _331  and  _332
REMARK  139  A    between atoms: _335  and  _337
REMARK  140  A    between atoms: _337  and  _338
REMARK  141  A    between atoms: _337  and  _340
REMARK  142  A    between atoms: _340  and  _341
REMARK  143  A    between atoms: _344  and  _346
REMARK  144  A    between atoms: _346  and  _347
REMARK  145  A    between atoms: _346  and  _349
REMARK  146  A    between atoms: _349  and  _350
REMARK  147  A    between atoms: _353  and  _355
REMARK  148  A    between atoms: _355  and  _356
REMARK  149  A    between atoms: _358  and  _360
REMARK  150  A    between atoms: _360  and  _361
REMARK  151  A    between atoms: _364  and  _366
REMARK  152  A    between atoms: _366  and  _367
REMARK  153  A    between atoms: _366  and  _369
REMARK  154  A    between atoms: _369  and  _370
REMARK  155  A    between atoms: _373  and  _375
REMARK  156  A    between atoms: _375  and  _376
REMARK  157  A    between atoms: _375  and  _378
REMARK  158  A    between atoms: _378  and  _379
REMARK  159  A    between atoms: _382  and  _384
REMARK  160  A    between atoms: _384  and  _385
REMARK  161  A    between atoms: _384  and  _387
REMARK  162  A    between atoms: _387  and  _388
REMARK  163  A    between atoms: _391  and  _393
REMARK  164  A    between atoms: _393  and  _394
REMARK  165  A    between atoms: _393  and  _396
REMARK  166  A    between atoms: _399  and  _401
REMARK  167  A    between atoms: _401  and  _402
REMARK  168  A    between atoms: _401  and  _404
REMARK  169  A    between atoms: _404  and  _405
REMARK  170  A    between atoms: _408  and  _410
REMARK  171  A    between atoms: _410  and  _411
REMARK  172  A    between atoms: _410  and  _413
REMARK  173  A    between atoms: _413  and  _414
REMARK  174  A    between atoms: _414  and  _415
REMARK  175  A    between atoms: _415  and  _416
REMARK  176  A    between atoms: _416  and  _417
REMARK  177  A    between atoms: _421  and  _423
REMARK  178  A    between atoms: _423  and  _424
REMARK  179  A    between atoms: _423  and  _426
REMARK  180  A    between atoms: _426  and  _427
REMARK  181  A    between atoms: _427  and  _428
REMARK  182  A    between atoms: _430  and  _432
REMARK  183  A    between atoms: _432  and  _433
REMARK  184  A    between atoms: _432  and  _435
REMARK  185  A    between atoms: _435  and  _436
REMARK  186  A    between atoms: _439  and  _441
REMARK  187  A    between atoms: _441  and  _442
REMARK  188  A    between atoms: _444  and  _446
REMARK  189  A    between atoms: _446  and  _447
REMARK  190  A    between atoms: _449  and  _451
REMARK  191  A    between atoms: _451  and  _452
REMARK  192  A    between atoms: _451  and  _454
REMARK  193  A    between atoms: _454  and  _455
REMARK  194  A    between atoms: _458  and  _460
REMARK  195  A    between atoms: _460  and  _461
REMARK  196  A    between atoms: _463  and  _465
REMARK  197  A    between atoms: _465  and  _466
REMARK  198  A    between atoms: _468  and  _470
REMARK  199  A    between atoms: _470  and  _471
REMARK  200  A    between atoms: _470  and  _473
REMARK  201  A    between atoms: _473  and  _474
REMARK  202  A    between atoms: _480  and  _482
REMARK  203  A    between atoms: _482  and  _483
REMARK  204  A    between atoms: _482  and  _485
REMARK  205  A    between atoms: _485  and  _486
REMARK  206  A    between atoms: _489  and  _491
REMARK  207  A    between atoms: _491  and  _492
REMARK  208  A    between atoms: _491  and  _494
REMARK  209  A    between atoms: _497  and  _499
REMARK  210  A    between atoms: _499  and  _500
REMARK  211  A    between atoms: _499  and  _502
REMARK  212  A    between atoms: _502  and  _503
REMARK  213  A    between atoms: _506  and  _508
REMARK  214  A    between atoms: _508  and  _509
REMARK  215  A    between atoms: _508  and  _511
REMARK  216  A    between atoms: _511  and  _512
REMARK  217  A    between atoms: _516  and  _517
REMARK  218  A    between atoms: _522  and  _524
REMARK  219  A    between atoms: _524  and  _525
REMARK  220  A    between atoms: _524  and  _527
REMARK  221  A    between atoms: _530  and  _532
REMARK  222  A    between atoms: _532  and  _533
REMARK  223  A    between atoms: _532  and  _535
REMARK  224  A    between atoms: _535  and  _536
REMARK  225  A    between atoms: _541  and  _543
REMARK  226  A    between atoms: _543  and  _544
REMARK  227  A    between atoms: _543  and  _546
REMARK  228  A    between atoms: _546  and  _547
REMARK  229  A    between atoms: _550  and  _552
REMARK  230  A    between atoms: _552  and  _553
REMARK  231  A    between atoms: _552  and  _555
REMARK  232  A    between atoms: _555  and  _556
REMARK  233  A    between atoms: _559  and  _561
REMARK  234  A    between atoms: _561  and  _562
REMARK  235  A    between atoms: _564  and  _566
REMARK  236  A    between atoms: _566  and  _567
REMARK  237  A    between atoms: _566  and  _569
REMARK  238  A    between atoms: _569  and  _570
REMARK  239  A    between atoms: _570  and  _571
REMARK  240  A    between atoms: _571  and  _572
REMARK                            x       y       z     vdW  Elec       q    Type
REMARK                         _______ _______ _______ _____ _____    ______ ____
ROOT
ATOM      1  O   HOH     1      18.520  15.249   9.241  0.00  0.00    +0.000 OA
ENDROOT
TORSDOF 0
REMARK  Name = ../refined-set-2016/1ebw/1ebw_pocket.pdb
REMARK  240 active torsions:
REMARK  status: ('A' for Active; 'I' for Inactive)
REMARK    1  A    between atoms: _1  and  _3
REMARK    2  A    between atoms: _3  and  _4
REMARK    3  A    between atoms: _3  and  _6
REMARK    4  A    between atoms: _6  and  _7
REMARK    5  A    between atoms: _7  and  _8
REMARK    6  A    between atoms: _8  and  _9
REMARK    7  A    between atoms: _18  and  _20
REMARK    8  A    between atoms: _20  and  _21
REMARK    9  A    between atoms: _20  and  _23
REMARK   10  A    between atoms: _23  and  _24
REMARK   11  A    between atoms: _27  and  _29
REMARK   12  A    between atoms: _29  and  _30
REMARK   13  A    between atoms: _29  and  _32
REMARK   14  A    between atoms: _32  and  _33
REMARK   15  A    between atoms: _36  and  _38
REMARK   16  A    between atoms: _38  and  _39
REMARK   17  A    between atoms: _38  and  _41
REMARK   18  A    between atoms: _41  and  _42
REMARK   19  A    between atoms: _45  and  _47
REMARK   20  A    between atoms: _47  and  _48
REMARK   21  A    between atoms: _47  and  _50
REMARK   22  A    between atoms: _50  and  _51
REMARK   23  A    between atoms: _54  and  _56
REMARK   24  A    between atoms: _56  and  _57
REMARK   25  A    between atoms: _56  and  _59
REMARK   26  A    between atoms: _59  and  _60
REMARK   27  A    between atoms: _63  and  _65
REMARK   28  A    between atoms: _65  and  _66
REMARK   29  A    between atoms: _68  and  _70
REMARK   30  A    between atoms: _70  and  _71
REMARK   31  A    between atoms: _74  and  _76
REMARK   32  A    between atoms: _76  and  _77
REMARK   33  A    between atoms: _76  and  _79
REMARK   34  A    between atoms: _79  and  _80
REMARK   35  A    between atoms: _83  and  _85
REMARK   36  A    between atoms: _85  and  _86
REMARK   37  A    between atoms: _85  and  _88
REMARK   38  A    between atoms: _88  and  _89
REMARK   39  A    between atoms: _92  and  _94
REMARK   40  A    between atoms: _94  and  _95
REMARK   41  A    between atoms: _94  and  _97
REMARK   42  A    between atoms: _97  and  _98
REMARK   43  A    between atoms: _101  and  _103
REMARK   44  A    between atoms: _103  and  _104
REMARK   45  A    between atoms: _103  and  _106
REMARK   46  A    between atoms: _109  and  _111
REMARK   47  A    between atoms: _111  and  _112
REMARK   48  A    between atoms: _111  and  _114
REMARK   49  A    between atoms: _114  and  _115
REMARK   50  A    between atoms: _118  and  _120
REMARK   51  A    between atoms: _120  and  _121
REMARK   52  A    between atoms: _120  and  _123
REMARK   53  A    between atoms: _123  and  _124
REMARK   54  A    between atoms: _124  and  _125
REMARK   55  A    between atoms: _125  and  _126
REMARK   56  A    between atoms: _126  and  _127
REMARK   57  A    between atoms: _131  and  _133
REMARK   58  A    between atoms: _133  and  _134
REMARK   59  A    between atoms: _133  and  _136
REMARK   60  A    between atoms: _136  and  _137
REMARK   61  A    between atoms: _137  and  _138
REMARK   62  A    between atoms: _140  and  _142
REMARK   63  A    between atoms: _142  and  _143
REMARK   64  A    between atoms: _142  and  _145
REMARK   65  A    between atoms: _145  and  _146
REMARK   66  A    between atoms: _149  and  _151
REMARK   67  A    between atoms: _151  and  _152
REMARK   68  A    between atoms: _154  and  _156
REMARK   69  A    between atoms: _156  and  _157
REMARK   70  A    between atoms: _159  and  _161
REMARK   71  A    between atoms: _161  and  _162
REMARK   72  A    between atoms: _161  and  _164
REMARK   73  A    between atoms: _164  and  _165
REMARK   74  A    between atoms: _168  and  _170
REMARK   75  A    between atoms: _170  and  _171
REMARK   76  A    between atoms: _173  and  _175
REMARK   77  A    between atoms: _175  and  _176
REMARK   78  A    between atoms: _178  and  _180
REMARK   79  A    between atoms: _180  and  _181
REMARK   80  A    between atoms: _180  and  _183
REMARK   81  A    between atoms: _183  and  _184
REMARK   82  A    between atoms: _190  and  _192
REMARK   83  A    between atoms: _192  and  _193
REMARK   84  A    between atoms: _192  and  _195
REMARK   85  A    between atoms: _195  and  _196
REMARK   86  A    between atoms: _199  and  _201
REMARK   87  A    between atoms: _201  and  _202
REMARK   88  A    between atoms: _201  and  _204
REMARK   89  A    between atoms: _207  and  _209
REMARK   90  A    between atoms: _209  and  _210
REMARK   91  A    between atoms: _209  and  _212
REMARK   92  A    between atoms: _212  and  _213
REMARK   93  A    between atoms: _216  and  _218
REMARK   94  A    between atoms: _218  and  _219
REMARK   95  A    between atoms: _218  and  _221
REMARK   96  A    between atoms: _221  and  _222
REMARK   97  A    between atoms: _226  and  _227
REMARK   98  A    between atoms: _232  and  _234
REMARK   99  A    between atoms: _234  and  _235
REMARK  100  A    between atoms: _234  and  _237
REMARK  101  A    between atoms: _240  and  _242
REMARK  102  A    between atoms: _242  and  _243
REMARK  103  A    between atoms: _242  and  _245
REMARK  104  A    between atoms: _245  and  _246
REMARK  105  A    between atoms: _251  and  _253
REMARK  106  A    between atoms: _253  and  _254
REMARK  107  A    between atoms: _253  and  _256
REMARK  108  A    between atoms: _256  and  _257
REMARK  109  A    between atoms: _260  and  _262
REMARK  110  A    between atoms: _262  and  _263
REMARK  111  A    between atoms: _262  and  _265
REMARK  112  A    between atoms: _265  and  _266
REMARK  113  A    between atoms: _269  and  _271
REMARK  114  A    between atoms: _271  and  _272
REMARK  115  A    between atoms: _274  and  _276
REMARK  116  A    between atoms: _276  and  _277
REMARK  117  A    between atoms: _276  and  _279
REMARK  118  A    between atoms: _279  and  _280
REMARK  119  A    between atoms: _280  and  _281
REMARK  120  A    between atoms: _281  and  _282
REMARK  121  A    between atoms: _291  and  _293
REMARK  122  A    between atoms: _293  and  _294
REMARK  123  A    between atoms: _293  and  _296
REMARK  124  A    between atoms: _296  and  _297
REMARK  125  A    between atoms: _297  and  _298
REMARK  126  A    between atoms: _298  and  _299
REMARK  127  A    between atoms: _308  and  _310
REMARK  128  A    between atoms: _310  and  _311
REMARK  129  A    between atoms: _310  and  _313
REMARK  130  A    between atoms: _313  and  _314
REMARK  131  A    between atoms: _317  and  _319
REMARK  132  A    between atoms: _319  and  _320
REMARK  133  A    between atoms: _319  and  _322
REMARK  134  A    between atoms: _322  and  _323
REMARK  135  A    between atoms: _326  and  _328
REMARK  136  A    between atoms: _328  and  _329
REMARK  137  A    between atoms: _328  and  _331
REMARK  138  A    between atoms: _331  and  _332
REMARK  139  A    between atoms: _335  and  _337
REMARK  140  A    between atoms: _337  and  _338
REMARK  141  A    between atoms: _337  and  _340
REMARK  142  A    between atoms: _340  and  _341
REMARK  143  A    between atoms: _344  and  _346
REMARK  144  A    between atoms: _346  and  _347
REMARK  145  A    between atoms: _346  and  _349
REMARK  146  A    between atoms: _349  and  _350
REMARK  147  A    between atoms: _353  and  _355
REMARK  148  A    between atoms: _355  and  _356
REMARK  149  A    between atoms: _358  and  _360
REMARK  150  A    between atoms: _360  and  _361
REMARK  151  A    between atoms: _364  and  _366
REMARK  152  A    between atoms: _366  and  _367
REMARK  153  A    between atoms: _366  and  _369
REMARK  154  A    between atoms: _369  and  _370
REMARK  155  A    between atoms: _373  and  _375
REMARK  156  A    between atoms: _375  and  _376
REMARK  157  A    between atoms: _375  and  _378
REMARK  158  A    between atoms: _378  and  _379
REMARK  159  A    between atoms: _382  and  _384
REMARK  160  A    between atoms: _384  and  _385
REMARK  161  A    between atoms: _384  and  _387
REMARK  162  A    between atoms: _387  and  _388
REMARK  163  A    between atoms: _391  and  _393
REMARK  164  A    between atoms: _393  and  _394
REMARK  165  A    between atoms: _393  and  _396
REMARK  166  A    between atoms: _399  and  _401
REMARK  167  A    between atoms: _401  and  _402
REMARK  168  A    between atoms: _401  and  _404
REMARK  169  A    between atoms: _404  and  _405
REMARK  170  A    between atoms: _408  and  _410
REMARK  171  A    between atoms: _410  and  _411
REMARK  172  A    between atoms: _410  and  _413
REMARK  173  A    between atoms: _413  and  _414
REMARK  174  A    between atoms: _414  and  _415
REMARK  175  A    between atoms: _415  and  _416
REMARK  176  A    between atoms: _416  and  _417
REMARK  177  A    between atoms: _421  and  _423
REMARK  178  A    between atoms: _423  and  _424
REMARK  179  A    between atoms: _423  and  _426
REMARK  180  A    between atoms: _426  and  _427
REMARK  181  A    between atoms: _427  and  _428
REMARK  182  A    between atoms: _430  and  _432
REMARK  183  A    between atoms: _432  and  _433
REMARK  184  A    between atoms: _432  and  _435
REMARK  185  A    between atoms: _435  and  _436
REMARK  186  A    between atoms: _439  and  _441
REMARK  187  A    between atoms: _441  and  _442
REMARK  188  A    between atoms: _444  and  _446
REMARK  189  A    between atoms: _446  and  _447
REMARK  190  A    between atoms: _449  and  _451
REMARK  191  A    between atoms: _451  and  _452
REMARK  192  A    between atoms: _451  and  _454
REMARK  193  A    between atoms: _454  and  _455
REMARK  194  A    between atoms: _458  and  _460
REMARK  195  A    between atoms: _460  and  _461
REMARK  196  A    between atoms: _463  and  _465
REMARK  197  A    between atoms: _465  and  _466
REMARK  198  A    between atoms: _468  and  _470
REMARK  199  A    between atoms: _470  and  _471
REMARK  200  A    between atoms: _470  and  _473
REMARK  201  A    between atoms: _473  and  _474
REMARK  202  A    between atoms: _480  and  _482
REMARK  203  A    between atoms: _482  and  _483
REMARK  204  A    between atoms: _482  and  _485
REMARK  205  A    between atoms: _485  and  _486
REMARK  206  A    between atoms: _489  and  _491
REMARK  207  A    between atoms: _491  and  _492
REMARK  208  A    between atoms: _491  and  _494
REMARK  209  A    between atoms: _497  and  _499
REMARK  210  A    between atoms: _499  and  _500
REMARK  211  A    between atoms: _499  and  _502
REMARK  212  A    between atoms: _502  and  _503
REMARK  213  A    between atoms: _506  and  _508
REMARK  214  A    between atoms: _508  and  _509
REMARK  215  A    between atoms: _508  and  _511
REMARK  216  A    between atoms: _511  and  _512
REMARK  217  A    between atoms: _516  and  _517
REMARK  218  A    between atoms: _522  and  _524
REMARK  219  A    between atoms: _524  and  _525
REMARK  220  A    between atoms: _524  and  _527
REMARK  221  A    between atoms: _530  and  _532
REMARK  222  A    between atoms: _532  and  _533
REMARK  223  A    between atoms: _532  and  _535
REMARK  224  A    between atoms: _535  and  _536
REMARK  225  A    between atoms: _541  and  _543
REMARK  226  A    between atoms: _543  and  _544
REMARK  227  A    between atoms: _543  and  _546
REMARK  228  A    between atoms: _546  and  _547
REMARK  229  A    between atoms: _550  and  _552
REMARK  230  A    between atoms: _552  and  _553
REMARK  231  A    between atoms: _552  and  _555
REMARK  232  A    between atoms: _555  and  _556
REMARK  233  A    between atoms: _559  and  _561
REMARK  234  A    between atoms: _561  and  _562
REMARK  235  A    between atoms: _564  and  _566
REMARK  236  A    between atoms: _566  and  _567
REMARK  237  A    between atoms: _566  and  _569
REMARK  238  A    between atoms: _569  and  _570
REMARK  239  A    between atoms: _570  and  _571
REMARK  240  A    between atoms: _571  and  _572
REMARK                            x       y       z     vdW  Elec       q    Type
REMARK                         _______ _______ _______ _____ _____    ______ ____
ROOT
ATOM      1  O   HOH     1       3.304  27.103   2.547  0.00  0.00    +0.000 OA
ENDROOT
TORSDOF 0
REMARK  Name = ../refined-set-2016/1ebw/1ebw_pocket.pdb
REMARK  240 active torsions:
REMARK  status: ('A' for Active; 'I' for Inactive)
REMARK    1  A    between atoms: _1  and  _3
REMARK    2  A    between atoms: _3  and  _4
REMARK    3  A    between atoms: _3  and  _6
REMARK    4  A    between atoms: _6  and  _7
REMARK    5  A    between atoms: _7  and  _8
REMARK    6  A    between atoms: _8  and  _9
REMARK    7  A    between atoms: _18  and  _20
REMARK    8  A    between atoms: _20  and  _21
REMARK    9  A    between atoms: _20  and  _23
REMARK   10  A    between atoms: _23  and  _24
REMARK   11  A    between atoms: _27  and  _29
REMARK   12  A    between atoms: _29  and  _30
REMARK   13  A    between atoms: _29  and  _32
REMARK   14  A    between atoms: _32  and  _33
REMARK   15  A    between atoms: _36  and  _38
REMARK   16  A    between atoms: _38  and  _39
REMARK   17  A    between atoms: _38  and  _41
REMARK   18  A    between atoms: _41  and  _42
REMARK   19  A    between atoms: _45  and  _47
REMARK   20  A    between atoms: _47  and  _48
REMARK   21  A    between atoms: _47  and  _50
REMARK   22  A    between atoms: _50  and  _51
REMARK   23  A    between atoms: _54  and  _56
REMARK   24  A    between atoms: _56  and  _57
REMARK   25  A    between atoms: _56  and  _59
REMARK   26  A    between atoms: _59  and  _60
REMARK   27  A    between atoms: _63  and  _65
REMARK   28  A    between atoms: _65  and  _66
REMARK   29  A    between atoms: _68  and  _70
REMARK   30  A    between atoms: _70  and  _71
REMARK   31  A    between atoms: _74  and  _76
REMARK   32  A    between atoms: _76  and  _77
REMARK   33  A    between atoms: _76  and  _79
REMARK   34  A    between atoms: _79  and  _80
REMARK   35  A    between atoms: _83  and  _85
REMARK   36  A    between atoms: _85  and  _86
REMARK   37  A    between atoms: _85  and  _88
REMARK   38  A    between atoms: _88  and  _89
REMARK   39  A    between atoms: _92  and  _94
REMARK   40  A    between atoms: _94  and  _95
REMARK   41  A    between atoms: _94  and  _97
REMARK   42  A    between atoms: _97  and  _98
REMARK   43  A    between atoms: _101  and  _103
REMARK   44  A    between atoms: _103  and  _104
REMARK   45  A    between atoms: _103  and  _106
REMARK   46  A    between atoms: _109  and  _111
REMARK   47  A    between atoms: _111  and  _112
REMARK   48  A    between atoms: _111  and  _114
REMARK   49  A    between atoms: _114  and  _115
REMARK   50  A    between atoms: _118  and  _120
REMARK   51  A    between atoms: _120  and  _121
REMARK   52  A    between atoms: _120  and  _123
REMARK   53  A    between atoms: _123  and  _124
REMARK   54  A    between atoms: _124  and  _125
REMARK   55  A    between atoms: _125  and  _126
REMARK   56  A    between atoms: _126  and  _127
REMARK   57  A    between atoms: _131  and  _133
REMARK   58  A    between atoms: _133  and  _134
REMARK   59  A    between atoms: _133  and  _136
REMARK   60  A    between atoms: _136  and  _137
REMARK   61  A    between atoms: _137  and  _138
REMARK   62  A    between atoms: _140  and  _142
REMARK   63  A    between atoms: _142  and  _143
REMARK   64  A    between atoms: _142  and  _145
REMARK   65  A    between atoms: _145  and  _146
REMARK   66  A    between atoms: _149  and  _151
REMARK   67  A    between atoms: _151  and  _152
REMARK   68  A    between atoms: _154  and  _156
REMARK   69  A    between atoms: _156  and  _157
REMARK   70  A    between atoms: _159  and  _161
REMARK   71  A    between atoms: _161  and  _162
REMARK   72  A    between atoms: _161  and  _164
REMARK   73  A    between atoms: _164  and  _165
REMARK   74  A    between atoms: _168  and  _170
REMARK   75  A    between atoms: _170  and  _171
REMARK   76  A    between atoms: _173  and  _175
REMARK   77  A    between atoms: _175  and  _176
REMARK   78  A    between atoms: _178  and  _180
REMARK   79  A    between atoms: _180  and  _181
REMARK   80  A    between atoms: _180  and  _183
REMARK   81  A    between atoms: _183  and  _184
REMARK   82  A    between atoms: _190  and  _192
REMARK   83  A    between atoms: _192  and  _193
REMARK   84  A    between atoms: _192  and  _195
REMARK   85  A    between atoms: _195  and  _196
REMARK   86  A    between atoms: _199  and  _201
REMARK   87  A    between atoms: _201  and  _202
REMARK   88  A    between atoms: _201  and  _204
REMARK   89  A    between atoms: _207  and  _209
REMARK   90  A    between atoms: _209  and  _210
REMARK   91  A    between atoms: _209  and  _212
REMARK   92  A    between atoms: _212  and  _213
REMARK   93  A    between atoms: _216  and  _218
REMARK   94  A    between atoms: _218  and  _219
REMARK   95  A    between atoms: _218  and  _221
REMARK   96  A    between atoms: _221  and  _222
REMARK   97  A    between atoms: _226  and  _227
REMARK   98  A    between atoms: _232  and  _234
REMARK   99  A    between atoms: _234  and  _235
REMARK  100  A    between atoms: _234  and  _237
REMARK  101  A    between atoms: _240  and  _242
REMARK  102  A    between atoms: _242  and  _243
REMARK  103  A    between atoms: _242  and  _245
REMARK  104  A    between atoms: _245  and  _246
REMARK  105  A    between atoms: _251  and  _253
REMARK  106  A    between atoms: _253  and  _254
REMARK  107  A    between atoms: _253  and  _256
REMARK  108  A    between atoms: _256  and  _257
REMARK  109  A    between atoms: _260  and  _262
REMARK  110  A    between atoms: _262  and  _263
REMARK  111  A    between atoms: _262  and  _265
REMARK  112  A    between atoms: _265  and  _266
REMARK  113  A    between atoms: _269  and  _271
REMARK  114  A    between atoms: _271  and  _272
REMARK  115  A    between atoms: _274  and  _276
REMARK  116  A    between atoms: _276  and  _277
REMARK  117  A    between atoms: _276  and  _279
REMARK  118  A    between atoms: _279  and  _280
REMARK  119  A    between atoms: _280  and  _281
REMARK  120  A    between atoms: _281  and  _282
REMARK  121  A    between atoms: _291  and  _293
REMARK  122  A    between atoms: _293  and  _294
REMARK  123  A    between atoms: _293  and  _296
REMARK  124  A    between atoms: _296  and  _297
REMARK  125  A    between atoms: _297  and  _298
REMARK  126  A    between atoms: _298  and  _299
REMARK  127  A    between atoms: _308  and  _310
REMARK  128  A    between atoms: _310  and  _311
REMARK  129  A    between atoms: _310  and  _313
REMARK  130  A    between atoms: _313  and  _314
REMARK  131  A    between atoms: _317  and  _319
REMARK  132  A    between atoms: _319  and  _320
REMARK  133  A    between atoms: _319  and  _322
REMARK  134  A    between atoms: _322  and  _323
REMARK  135  A    between atoms: _326  and  _328
REMARK  136  A    between atoms: _328  and  _329
REMARK  137  A    between atoms: _328  and  _331
REMARK  138  A    between atoms: _331  and  _332
REMARK  139  A    between atoms: _335  and  _337
REMARK  140  A    between atoms: _337  and  _338
REMARK  141  A    between atoms: _337  and  _340
REMARK  142  A    between atoms: _340  and  _341
REMARK  143  A    between atoms: _344  and  _346
REMARK  144  A    between atoms: _346  and  _347
REMARK  145  A    between atoms: _346  and  _349
REMARK  146  A    between atoms: _349  and  _350
REMARK  147  A    between atoms: _353  and  _355
REMARK  148  A    between atoms: _355  and  _356
REMARK  149  A    between atoms: _358  and  _360
REMARK  150  A    between atoms: _360  and  _361
REMARK  151  A    between atoms: _364  and  _366
REMARK  152  A    between atoms: _366  and  _367
REMARK  153  A    between atoms: _366  and  _369
REMARK  154  A    between atoms: _369  and  _370
REMARK  155  A    between atoms: _373  and  _375
REMARK  156  A    between atoms: _375  and  _376
REMARK  157  A    between atoms: _375  and  _378
REMARK  158  A    between atoms: _378  and  _379
REMARK  159  A    between atoms: _382  and  _384
REMARK  160  A    between atoms: _384  and  _385
REMARK  161  A    between atoms: _384  and  _387
REMARK  162  A    between atoms: _387  and  _388
REMARK  163  A    between atoms: _391  and  _393
REMARK  164  A    between atoms: _393  and  _394
REMARK  165  A    between atoms: _393  and  _396
REMARK  166  A    between atoms: _399  and  _401
REMARK  167  A    between atoms: _401  and  _402
REMARK  168  A    between atoms: _401  and  _404
REMARK  169  A    between atoms: _404  and  _405
REMARK  170  A    between atoms: _408  and  _410
REMARK  171  A    between atoms: _410  and  _411
REMARK  172  A    between atoms: _410  and  _413
REMARK  173  A    between atoms: _413  and  _414
REMARK  174  A    between atoms: _414  and  _415
REMARK  175  A    between atoms: _415  and  _416
REMARK  176  A    between atoms: _416  and  _417
REMARK  177  A    between atoms: _421  and  _423
REMARK  178  A    between atoms: _423  and  _424
REMARK  179  A    between atoms: _423  and  _426
REMARK  180  A    between atoms: _426  and  _427
REMARK  181  A    between atoms: _427  and  _428
REMARK  182  A    between atoms: _430  and  _432
REMARK  183  A    between atoms: _432  and  _433
REMARK  184  A    between atoms: _432  and  _435
REMARK  185  A    between atoms: _435  and  _436
REMARK  186  A    between atoms: _439  and  _441
REMARK  187  A    between atoms: _441  and  _442
REMARK  188  A    between atoms: _444  and  _446
REMARK  189  A    between atoms: _446  and  _447
REMARK  190  A    between atoms: _449  and  _451
REMARK  191  A    between atoms: _451  and  _452
REMARK  192  A    between atoms: _451  and  _454
REMARK  193  A    between atoms: _454  and  _455
REMARK  194  A    between atoms: _458  and  _460
REMARK  195  A    between atoms: _460  and  _461
REMARK  196  A    between atoms: _463  and  _465
REMARK  197  A    between atoms: _465  and  _466
REMARK  198  A    between atoms: _468  and  _470
REMARK  199  A    between atoms: _470  and  _471
REMARK  200  A    between atoms: _470  and  _473
REMARK  201  A    between atoms: _473  and  _474
REMARK  202  A    between atoms: _480  and  _482
REMARK  203  A    between atoms: _482  and  _483
REMARK  204  A    between atoms: _482  and  _485
REMARK  205  A    between atoms: _485  and  _486
REMARK  206  A    between atoms: _489  and  _491
REMARK  207  A    between atoms: _491  and  _492
REMARK  208  A    between atoms: _491  and  _494
REMARK  209  A    between atoms: _497  and  _499
REMARK  210  A    between atoms: _499  and  _500
REMARK  211  A    between atoms: _499  and  _502
REMARK  212  A    between atoms: _502  and  _503
REMARK  213  A    between atoms: _506  and  _508
REMARK  214  A    between atoms: _508  and  _509
REMARK  215  A    between atoms: _508  and  _511
REMARK  216  A    between atoms: _511  and  _512
REMARK  217  A    between atoms: _516  and  _517
REMARK  218  A    between atoms: _522  and  _524
REMARK  219  A    between atoms: _524  and  _525
REMARK  220  A    between atoms: _524  and  _527
REMARK  221  A    between atoms: _530  and  _532
REMARK  222  A    between atoms: _532  and  _533
REMARK  223  A    between atoms: _532  and  _535
REMARK  224  A    between atoms: _535  and  _536
REMARK  225  A    between atoms: _541  and  _543
REMARK  226  A    between atoms: _543  and  _544
REMARK  227  A    between atoms: _543  and  _546
REMARK  228  A    between atoms: _546  and  _547
REMARK  229  A    between atoms: _550  and  _552
REMARK  230  A    between atoms: _552  and  _553
REMARK  231  A    between atoms: _552  and  _555
REMARK  232  A    between atoms: _555  and  _556
REMARK  233  A    between atoms: _559  and  _561
REMARK  234  A    between atoms: _561  and  _562
REMARK  235  A    between atoms: _564  and  _566
REMARK  236  A    between atoms: _566  and  _567
REMARK  237  A    between atoms: _566  and  _569
REMARK  238  A    between atoms: _569  and  _570
REMARK  239  A    between atoms: _570  and  _571
REMARK  240  A    between atoms: _571  and  _572
REMARK                            x       y       z     vdW  Elec       q    Type
REMARK                         _______ _______ _______ _____ _____    ______ ____
ROOT
ATOM      1  O   HOH     1      10.451  17.200  13.969  0.00  0.00    +0.000 OA
ENDROOT
TORSDOF 0
REMARK  Name = ../refined-set-2016/1ebw/1ebw_pocket.pdb
REMARK  240 active torsions:
REMARK  status: ('A' for Active; 'I' for Inactive)
REMARK    1  A    between atoms: _1  and  _3
REMARK    2  A    between atoms: _3  and  _4
REMARK    3  A    between atoms: _3  and  _6
REMARK    4  A    between atoms: _6  and  _7
REMARK    5  A    between atoms: _7  and  _8
REMARK    6  A    between atoms: _8  and  _9
REMARK    7  A    between atoms: _18  and  _20
REMARK    8  A    between atoms: _20  and  _21
REMARK    9  A    between atoms: _20  and  _23
REMARK   10  A    between atoms: _23  and  _24
REMARK   11  A    between atoms: _27  and  _29
REMARK   12  A    between atoms: _29  and  _30
REMARK   13  A    between atoms: _29  and  _32
REMARK   14  A    between atoms: _32  and  _33
REMARK   15  A    between atoms: _36  and  _38
REMARK   16  A    between atoms: _38  and  _39
REMARK   17  A    between atoms: _38  and  _41
REMARK   18  A    between atoms: _41  and  _42
REMARK   19  A    between atoms: _45  and  _47
REMARK   20  A    between atoms: _47  and  _48
REMARK   21  A    between atoms: _47  and  _50
REMARK   22  A    between atoms: _50  and  _51
REMARK   23  A    between atoms: _54  and  _56
REMARK   24  A    between atoms: _56  and  _57
REMARK   25  A    between atoms: _56  and  _59
REMARK   26  A    between atoms: _59  and  _60
REMARK   27  A    between atoms: _63  and  _65
REMARK   28  A    between atoms: _65  and  _66
REMARK   29  A    between atoms: _68  and  _70
REMARK   30  A    between atoms: _70  and  _71
REMARK   31  A    between atoms: _74  and  _76
REMARK   32  A    between atoms: _76  and  _77
REMARK   33  A    between atoms: _76  and  _79
REMARK   34  A    between atoms: _79  and  _80
REMARK   35  A    between atoms: _83  and  _85
REMARK   36  A    between atoms: _85  and  _86
REMARK   37  A    between atoms: _85  and  _88
REMARK   38  A    between atoms: _88  and  _89
REMARK   39  A    between atoms: _92  and  _94
REMARK   40  A    between atoms: _94  and  _95
REMARK   41  A    between atoms: _94  and  _97
REMARK   42  A    between atoms: _97  and  _98
REMARK   43  A    between atoms: _101  and  _103
REMARK   44  A    between atoms: _103  and  _104
REMARK   45  A    between atoms: _103  and  _106
REMARK   46  A    between atoms: _109  and  _111
REMARK   47  A    between atoms: _111  and  _112
REMARK   48  A    between atoms: _111  and  _114
REMARK   49  A    between atoms: _114  and  _115
REMARK   50  A    between atoms: _118  and  _120
REMARK   51  A    between atoms: _120  and  _121
REMARK   52  A    between atoms: _120  and  _123
REMARK   53  A    between atoms: _123  and  _124
REMARK   54  A    between atoms: _124  and  _125
REMARK   55  A    between atoms: _125  and  _126
REMARK   56  A    between atoms: _126  and  _127
REMARK   57  A    between atoms: _131  and  _133
REMARK   58  A    between atoms: _133  and  _134
REMARK   59  A    between atoms: _133  and  _136
REMARK   60  A    between atoms: _136  and  _137
REMARK   61  A    between atoms: _137  and  _138
REMARK   62  A    between atoms: _140  and  _142
REMARK   63  A    between atoms: _142  and  _143
REMARK   64  A    between atoms: _142  and  _145
REMARK   65  A    between atoms: _145  and  _146
REMARK   66  A    between atoms: _149  and  _151
REMARK   67  A    between atoms: _151  and  _152
REMARK   68  A    between atoms: _154  and  _156
REMARK   69  A    between atoms: _156  and  _157
REMARK   70  A    between atoms: _159  and  _161
REMARK   71  A    between atoms: _161  and  _162
REMARK   72  A    between atoms: _161  and  _164
REMARK   73  A    between atoms: _164  and  _165
REMARK   74  A    between atoms: _168  and  _170
REMARK   75  A    between atoms: _170  and  _171
REMARK   76  A    between atoms: _173  and  _175
REMARK   77  A    between atoms: _175  and  _176
REMARK   78  A    between atoms: _178  and  _180
REMARK   79  A    between atoms: _180  and  _181
REMARK   80  A    between atoms: _180  and  _183
REMARK   81  A    between atoms: _183  and  _184
REMARK   82  A    between atoms: _190  and  _192
REMARK   83  A    between atoms: _192  and  _193
REMARK   84  A    between atoms: _192  and  _195
REMARK   85  A    between atoms: _195  and  _196
REMARK   86  A    between atoms: _199  and  _201
REMARK   87  A    between atoms: _201  and  _202
REMARK   88  A    between atoms: _201  and  _204
REMARK   89  A    between atoms: _207  and  _209
REMARK   90  A    between atoms: _209  and  _210
REMARK   91  A    between atoms: _209  and  _212
REMARK   92  A    between atoms: _212  and  _213
REMARK   93  A    between atoms: _216  and  _218
REMARK   94  A    between atoms: _218  and  _219
REMARK   95  A    between atoms: _218  and  _221
REMARK   96  A    between atoms: _221  and  _222
REMARK   97  A    between atoms: _226  and  _227
REMARK   98  A    between atoms: _232  and  _234
REMARK   99  A    between atoms: _234  and  _235
REMARK  100  A    between atoms: _234  and  _237
REMARK  101  A    between atoms: _240  and  _242
REMARK  102  A    between atoms: _242  and  _243
REMARK  103  A    between atoms: _242  and  _245
REMARK  104  A    between atoms: _245  and  _246
REMARK  105  A    between atoms: _251  and  _253
REMARK  106  A    between atoms: _253  and  _254
REMARK  107  A    between atoms: _253  and  _256
REMARK  108  A    between atoms: _256  and  _257
REMARK  109  A    between atoms: _260  and  _262
REMARK  110  A    between atoms: _262  and  _263
REMARK  111  A    between atoms: _262  and  _265
REMARK  112  A    between atoms: _265  and  _266
REMARK  113  A    between atoms: _269  and  _271
REMARK  114  A    between atoms: _271  and  _272
REMARK  115  A    between atoms: _274  and  _276
REMARK  116  A    between atoms: _276  and  _277
REMARK  117  A    between atoms: _276  and  _279
REMARK  118  A    between atoms: _279  and  _280
REMARK  119  A    between atoms: _280  and  _281
REMARK  120  A    between atoms: _281  and  _282
REMARK  121  A    between atoms: _291  and  _293
REMARK  122  A    between atoms: _293  and  _294
REMARK  123  A    between atoms: _293  and  _296
REMARK  124  A    between atoms: _296  and  _297
REMARK  125  A    between atoms: _297  and  _298
REMARK  126  A    between atoms: _298  and  _299
REMARK  127  A    between atoms: _308  and  _310
REMARK  128  A    between atoms: _310  and  _311
REMARK  129  A    between atoms: _310  and  _313
REMARK  130  A    between atoms: _313  and  _314
REMARK  131  A    between atoms: _317  and  _319
REMARK  132  A    between atoms: _319  and  _320
REMARK  133  A    between atoms: _319  and  _322
REMARK  134  A    between atoms: _322  and  _323
REMARK  135  A    between atoms: _326  and  _328
REMARK  136  A    between atoms: _328  and  _329
REMARK  137  A    between atoms: _328  and  _331
REMARK  138  A    between atoms: _331  and  _332
REMARK  139  A    between atoms: _335  and  _337
REMARK  140  A    between atoms: _337  and  _338
REMARK  141  A    between atoms: _337  and  _340
REMARK  142  A    between atoms: _340  and  _341
REMARK  143  A    between atoms: _344  and  _346
REMARK  144  A    between atoms: _346  and  _347
REMARK  145  A    between atoms: _346  and  _349
REMARK  146  A    between atoms: _349  and  _350
REMARK  147  A    between atoms: _353  and  _355
REMARK  148  A    between atoms: _355  and  _356
REMARK  149  A    between atoms: _358  and  _360
REMARK  150  A    between atoms: _360  and  _361
REMARK  151  A    between atoms: _364  and  _366
REMARK  152  A    between atoms: _366  and  _367
REMARK  153  A    between atoms: _366  and  _369
REMARK  154  A    between atoms: _369  and  _370
REMARK  155  A    between atoms: _373  and  _375
REMARK  156  A    between atoms: _375  and  _376
REMARK  157  A    between atoms: _375  and  _378
REMARK  158  A    between atoms: _378  and  _379
REMARK  159  A    between atoms: _382  and  _384
REMARK  160  A    between atoms: _384  and  _385
REMARK  161  A    between atoms: _384  and  _387
REMARK  162  A    between atoms: _387  and  _388
REMARK  163  A    between atoms: _391  and  _393
REMARK  164  A    between atoms: _393  and  _394
REMARK  165  A    between atoms: _393  and  _396
REMARK  166  A    between atoms: _399  and  _401
REMARK  167  A    between atoms: _401  and  _402
REMARK  168  A    between atoms: _401  and  _404
REMARK  169  A    between atoms: _404  and  _405
REMARK  170  A    between atoms: _408  and  _410
REMARK  171  A    between atoms: _410  and  _411
REMARK  172  A    between atoms: _410  and  _413
REMARK  173  A    between atoms: _413  and  _414
REMARK  174  A    between atoms: _414  and  _415
REMARK  175  A    between atoms: _415  and  _416
REMARK  176  A    between atoms: _416  and  _417
REMARK  177  A    between atoms: _421  and  _423
REMARK  178  A    between atoms: _423  and  _424
REMARK  179  A    between atoms: _423  and  _426
REMARK  180  A    between atoms: _426  and  _427
REMARK  181  A    between atoms: _427  and  _428
REMARK  182  A    between atoms: _430  and  _432
REMARK  183  A    between atoms: _432  and  _433
REMARK  184  A    between atoms: _432  and  _435
REMARK  185  A    between atoms: _435  and  _436
REMARK  186  A    between atoms: _439  and  _441
REMARK  187  A    between atoms: _441  and  _442
REMARK  188  A    between atoms: _444  and  _446
REMARK  189  A    between atoms: _446  and  _447
REMARK  190  A    between atoms: _449  and  _451
REMARK  191  A    between atoms: _451  and  _452
REMARK  192  A    between atoms: _451  and  _454
REMARK  193  A    between atoms: _454  and  _455
REMARK  194  A    between atoms: _458  and  _460
REMARK  195  A    between atoms: _460  and  _461
REMARK  196  A    between atoms: _463  and  _465
REMARK  197  A    between atoms: _465  and  _466
REMARK  198  A    between atoms: _468  and  _470
REMARK  199  A    between atoms: _470  and  _471
REMARK  200  A    between atoms: _470  and  _473
REMARK  201  A    between atoms: _473  and  _474
REMARK  202  A    between atoms: _480  and  _482
REMARK  203  A    between atoms: _482  and  _483
REMARK  204  A    between atoms: _482  and  _485
REMARK  205  A    between atoms: _485  and  _486
REMARK  206  A    between atoms: _489  and  _491
REMARK  207  A    between atoms: _491  and  _492
REMARK  208  A    between atoms: _491  and  _494
REMARK  209  A    between atoms: _497  and  _499
REMARK  210  A    between atoms: _499  and  _500
REMARK  211  A    between atoms: _499  and  _502
REMARK  212  A    between atoms: _502  and  _503
REMARK  213  A    between atoms: _506  and  _508
REMARK  214  A    between atoms: _508  and  _509
REMARK  215  A    between atoms: _508  and  _511
REMARK  216  A    between atoms: _511  and  _512
REMARK  217  A    between atoms: _516  and  _517
REMARK  218  A    between atoms: _522  and  _524
REMARK  219  A    between atoms: _524  and  _525
REMARK  220  A    between atoms: _524  and  _527
REMARK  221  A    between atoms: _530  and  _532
REMARK  222  A    between atoms: _532  and  _533
REMARK  223  A    between atoms: _532  and  _535
REMARK  224  A    between atoms: _535  and  _536
REMARK  225  A    between atoms: _541  and  _543
REMARK  226  A    between atoms: _543  and  _544
REMARK  227  A    between atoms: _543  and  _546
REMARK  228  A    between atoms: _546  and  _547
REMARK  229  A    between atoms: _550  and  _552
REMARK  230  A    between atoms: _552  and  _553
REMARK  231  A    between atoms: _552  and  _555
REMARK  232  A    between atoms: _555  and  _556
REMARK  233  A    between atoms: _559  and  _561
REMARK  234  A    between atoms: _561  and  _562
REMARK  235  A    between atoms: _564  and  _566
REMARK  236  A    between atoms: _566  and  _567
REMARK  237  A    between atoms: _566  and  _569
REMARK  238  A    between atoms: _569  and  _570
REMARK  239  A    between atoms: _570  and  _571
REMARK  240  A    between atoms: _571  and  _572
REMARK                            x       y       z     vdW  Elec       q    Type
REMARK                         _______ _______ _______ _____ _____    ______ ____
ROOT
ATOM      1  O   HOH     1      23.856  15.470   1.978  0.00  0.00    +0.000 OA
ENDROOT
TORSDOF 0
