REMARK  Name = ../refined-set-2016/5bry/5bry_pocket.pdb
REMARK  226 active torsions:
REMARK  status: ('A' for Active; 'I' for Inactive)
REMARK    1  A    between atoms: _1  and  _3
REMARK    2  A    between atoms: _3  and  _4
REMARK    3  A    between atoms: _3  and  _6
REMARK    4  A    between atoms: _6  and  _7
REMARK    5  A    between atoms: _7  and  _8
REMARK    6  A    between atoms: _8  and  _9
REMARK    7  A    between atoms: _18  and  _20
REMARK    8  A    between atoms: _20  and  _21
REMARK    9  A    between atoms: _20  and  _23
REMARK   10  A    between atoms: _23  and  _24
REMARK   11  A    between atoms: _27  and  _29
REMARK   12  A    between atoms: _29  and  _30
REMARK   13  A    between atoms: _29  and  _32
REMARK   14  A    between atoms: _32  and  _33
REMARK   15  A    between atoms: _36  and  _38
REMARK   16  A    between atoms: _38  and  _39
REMARK   17  A    between atoms: _38  and  _41
REMARK   18  A    between atoms: _41  and  _42
REMARK   19  A    between atoms: _45  and  _47
REMARK   20  A    between atoms: _47  and  _48
REMARK   21  A    between atoms: _47  and  _50
REMARK   22  A    between atoms: _50  and  _51
REMARK   23  A    between atoms: _54  and  _56
REMARK   24  A    between atoms: _56  and  _57
REMARK   25  A    between atoms: _59  and  _61
REMARK   26  A    between atoms: _61  and  _62
REMARK   27  A    between atoms: _65  and  _67
REMARK   28  A    between atoms: _67  and  _68
REMARK   29  A    between atoms: _67  and  _70
REMARK   30  A    between atoms: _70  and  _71
REMARK   31  A    between atoms: _74  and  _76
REMARK   32  A    between atoms: _76  and  _77
REMARK   33  A    between atoms: _76  and  _79
REMARK   34  A    between atoms: _79  and  _80
REMARK   35  A    between atoms: _83  and  _85
REMARK   36  A    between atoms: _85  and  _86
REMARK   37  A    between atoms: _85  and  _88
REMARK   38  A    between atoms: _88  and  _89
REMARK   39  A    between atoms: _92  and  _94
REMARK   40  A    between atoms: _94  and  _95
REMARK   41  A    between atoms: _94  and  _97
REMARK   42  A    between atoms: _100  and  _102
REMARK   43  A    between atoms: _102  and  _103
REMARK   44  A    between atoms: _102  and  _105
REMARK   45  A    between atoms: _105  and  _106
REMARK   46  A    between atoms: _106  and  _107
REMARK   47  A    between atoms: _107  and  _108
REMARK   48  A    between atoms: _108  and  _109
REMARK   49  A    between atoms: _113  and  _115
REMARK   50  A    between atoms: _115  and  _116
REMARK   51  A    between atoms: _115  and  _118
REMARK   52  A    between atoms: _118  and  _119
REMARK   53  A    between atoms: _119  and  _120
REMARK   54  A    between atoms: _122  and  _124
REMARK   55  A    between atoms: _124  and  _125
REMARK   56  A    between atoms: _124  and  _127
REMARK   57  A    between atoms: _127  and  _128
REMARK   58  A    between atoms: _131  and  _133
REMARK   59  A    between atoms: _133  and  _134
REMARK   60  A    between atoms: _136  and  _138
REMARK   61  A    between atoms: _138  and  _139
REMARK   62  A    between atoms: _141  and  _143
REMARK   63  A    between atoms: _143  and  _144
REMARK   64  A    between atoms: _143  and  _146
REMARK   65  A    between atoms: _146  and  _147
REMARK   66  A    between atoms: _150  and  _152
REMARK   67  A    between atoms: _152  and  _153
REMARK   68  A    between atoms: _155  and  _157
REMARK   69  A    between atoms: _157  and  _158
REMARK   70  A    between atoms: _160  and  _162
REMARK   71  A    between atoms: _162  and  _163
REMARK   72  A    between atoms: _162  and  _165
REMARK   73  A    between atoms: _165  and  _166
REMARK   74  A    between atoms: _172  and  _174
REMARK   75  A    between atoms: _174  and  _175
REMARK   76  A    between atoms: _174  and  _177
REMARK   77  A    between atoms: _177  and  _178
REMARK   78  A    between atoms: _181  and  _183
REMARK   79  A    between atoms: _183  and  _184
REMARK   80  A    between atoms: _183  and  _186
REMARK   81  A    between atoms: _189  and  _191
REMARK   82  A    between atoms: _191  and  _192
REMARK   83  A    between atoms: _191  and  _194
REMARK   84  A    between atoms: _194  and  _195
REMARK   85  A    between atoms: _199  and  _200
REMARK   86  A    between atoms: _205  and  _207
REMARK   87  A    between atoms: _207  and  _208
REMARK   88  A    between atoms: _207  and  _210
REMARK   89  A    between atoms: _210  and  _211
REMARK   90  A    between atoms: _215  and  _216
REMARK   91  A    between atoms: _221  and  _223
REMARK   92  A    between atoms: _223  and  _224
REMARK   93  A    between atoms: _223  and  _226
REMARK   94  A    between atoms: _229  and  _231
REMARK   95  A    between atoms: _231  and  _232
REMARK   96  A    between atoms: _231  and  _234
REMARK   97  A    between atoms: _234  and  _235
REMARK   98  A    between atoms: _240  and  _242
REMARK   99  A    between atoms: _242  and  _243
REMARK  100  A    between atoms: _242  and  _245
REMARK  101  A    between atoms: _245  and  _246
REMARK  102  A    between atoms: _249  and  _251
REMARK  103  A    between atoms: _251  and  _252
REMARK  104  A    between atoms: _251  and  _254
REMARK  105  A    between atoms: _254  and  _255
REMARK  106  A    between atoms: _258  and  _260
REMARK  107  A    between atoms: _260  and  _261
REMARK  108  A    between atoms: _263  and  _265
REMARK  109  A    between atoms: _265  and  _266
REMARK  110  A    between atoms: _265  and  _268
REMARK  111  A    between atoms: _268  and  _269
REMARK  112  A    between atoms: _269  and  _270
REMARK  113  A    between atoms: _270  and  _271
REMARK  114  A    between atoms: _280  and  _282
REMARK  115  A    between atoms: _282  and  _283
REMARK  116  A    between atoms: _282  and  _285
REMARK  117  A    between atoms: _285  and  _286
REMARK  118  A    between atoms: _291  and  _293
REMARK  119  A    between atoms: _293  and  _294
REMARK  120  A    between atoms: _293  and  _296
REMARK  121  A    between atoms: _296  and  _297
REMARK  122  A    between atoms: _297  and  _298
REMARK  123  A    between atoms: _298  and  _299
REMARK  124  A    between atoms: _308  and  _310
REMARK  125  A    between atoms: _310  and  _311
REMARK  126  A    between atoms: _310  and  _313
REMARK  127  A    between atoms: _313  and  _314
REMARK  128  A    between atoms: _317  and  _319
REMARK  129  A    between atoms: _319  and  _320
REMARK  130  A    between atoms: _319  and  _322
REMARK  131  A    between atoms: _322  and  _323
REMARK  132  A    between atoms: _326  and  _328
REMARK  133  A    between atoms: _328  and  _329
REMARK  134  A    between atoms: _328  and  _331
REMARK  135  A    between atoms: _331  and  _332
REMARK  136  A    between atoms: _335  and  _337
REMARK  137  A    between atoms: _337  and  _338
REMARK  138  A    between atoms: _337  and  _340
REMARK  139  A    between atoms: _340  and  _341
REMARK  140  A    between atoms: _344  and  _346
REMARK  141  A    between atoms: _346  and  _347
REMARK  142  A    between atoms: _349  and  _351
REMARK  143  A    between atoms: _351  and  _352
REMARK  144  A    between atoms: _355  and  _357
REMARK  145  A    between atoms: _357  and  _358
REMARK  146  A    between atoms: _357  and  _360
REMARK  147  A    between atoms: _360  and  _361
REMARK  148  A    between atoms: _364  and  _366
REMARK  149  A    between atoms: _366  and  _367
REMARK  150  A    between atoms: _366  and  _369
REMARK  151  A    between atoms: _369  and  _370
REMARK  152  A    between atoms: _373  and  _375
REMARK  153  A    between atoms: _375  and  _376
REMARK  154  A    between atoms: _375  and  _378
REMARK  155  A    between atoms: _378  and  _379
REMARK  156  A    between atoms: _382  and  _384
REMARK  157  A    between atoms: _384  and  _385
REMARK  158  A    between atoms: _384  and  _387
REMARK  159  A    between atoms: _390  and  _392
REMARK  160  A    between atoms: _392  and  _393
REMARK  161  A    between atoms: _392  and  _395
REMARK  162  A    between atoms: _395  and  _396
REMARK  163  A    between atoms: _396  and  _397
REMARK  164  A    between atoms: _397  and  _398
REMARK  165  A    between atoms: _398  and  _399
REMARK  166  A    between atoms: _403  and  _405
REMARK  167  A    between atoms: _405  and  _406
REMARK  168  A    between atoms: _405  and  _408
REMARK  169  A    between atoms: _408  and  _409
REMARK  170  A    between atoms: _409  and  _410
REMARK  171  A    between atoms: _412  and  _414
REMARK  172  A    between atoms: _414  and  _415
REMARK  173  A    between atoms: _414  and  _417
REMARK  174  A    between atoms: _417  and  _418
REMARK  175  A    between atoms: _421  and  _423
REMARK  176  A    between atoms: _423  and  _424
REMARK  177  A    between atoms: _426  and  _428
REMARK  178  A    between atoms: _428  and  _429
REMARK  179  A    between atoms: _431  and  _433
REMARK  180  A    between atoms: _433  and  _434
REMARK  181  A    between atoms: _433  and  _436
REMARK  182  A    between atoms: _436  and  _437
REMARK  183  A    between atoms: _440  and  _442
REMARK  184  A    between atoms: _442  and  _443
REMARK  185  A    between atoms: _445  and  _447
REMARK  186  A    between atoms: _447  and  _448
REMARK  187  A    between atoms: _450  and  _452
REMARK  188  A    between atoms: _452  and  _453
REMARK  189  A    between atoms: _452  and  _455
REMARK  190  A    between atoms: _455  and  _456
REMARK  191  A    between atoms: _462  and  _464
REMARK  192  A    between atoms: _464  and  _465
REMARK  193  A    between atoms: _464  and  _467
REMARK  194  A    between atoms: _467  and  _468
REMARK  195  A    between atoms: _471  and  _473
REMARK  196  A    between atoms: _473  and  _474
REMARK  197  A    between atoms: _473  and  _476
REMARK  198  A    between atoms: _476  and  _477
REMARK  199  A    between atoms: _480  and  _482
REMARK  200  A    between atoms: _482  and  _483
REMARK  201  A    between atoms: _482  and  _485
REMARK  202  A    between atoms: _485  and  _486
REMARK  203  A    between atoms: _490  and  _491
REMARK  204  A    between atoms: _496  and  _498
REMARK  205  A    between atoms: _498  and  _499
REMARK  206  A    between atoms: _498  and  _501
REMARK  207  A    between atoms: _504  and  _506
REMARK  208  A    between atoms: _506  and  _507
REMARK  209  A    between atoms: _506  and  _509
REMARK  210  A    between atoms: _509  and  _510
REMARK  211  A    between atoms: _515  and  _517
REMARK  212  A    between atoms: _517  and  _518
REMARK  213  A    between atoms: _517  and  _520
REMARK  214  A    between atoms: _520  and  _521
REMARK  215  A    between atoms: _524  and  _526
REMARK  216  A    between atoms: _526  and  _527
REMARK  217  A    between atoms: _529  and  _531
REMARK  218  A    between atoms: _531  and  _532
REMARK  219  A    between atoms: _531  and  _534
REMARK  220  A    between atoms: _534  and  _535
REMARK  221  A    between atoms: _535  and  _536
REMARK  222  A    between atoms: _536  and  _537
REMARK  223  A    between atoms: _546  and  _548
REMARK  224  A    between atoms: _548  and  _549
REMARK  225  A    between atoms: _548  and  _551
REMARK  226  A    between atoms: _551  and  _552
REMARK                            x       y       z     vdW  Elec       q    Type
REMARK                         _______ _______ _______ _____ _____    ______ ____
ROOT
ATOM      1  NE  ARG A   1       5.937  20.590  14.942  0.00  0.00    -0.265 N 
ATOM      2  HE  ARG A   1       6.341  20.538  15.899  0.00  0.00    +0.259 HD
ATOM      3  CZ  ARG A   1       5.979  19.475  14.227  0.00  0.00    +0.342 C 
ATOM      4  NH2 ARG A   1       6.522  18.394  14.742  0.00  0.00    -0.292 N 
ATOM      5 HH21 ARG A   1       6.915  18.418  15.705  0.00  0.00    +0.255 HD
ATOM      6 HH22 ARG A   1       6.559  17.515  14.187  0.00  0.00    +0.255 HD
ATOM      7  NH1 ARG A   1       5.496  19.395  12.990  0.00  0.00    -0.292 N 
ATOM      8 HH11 ARG A   1       5.063  20.230  12.546  0.00  0.00    +0.255 HD
ATOM      9 HH12 ARG A   1       5.551  18.498  12.467  0.00  0.00    +0.255 HD
ENDROOT
BRANCH   1  10
ATOM     10  CD  ARG A   1       5.387  21.887  14.540  0.00  0.00    +0.174 C 
BRANCH  10  11
ATOM     11  CG  ARG A   1       5.018  22.746  15.742  0.00  0.00    +0.045 C 
BRANCH  11  12
ATOM     12  CB  ARG A   1       4.481  24.118  15.307  0.00  0.00    +0.029 C 
BRANCH  12  13
ATOM     13  CA  ARG A   1       3.845  24.874  16.505  0.00  0.00    +0.133 C 
BRANCH  13  14
ATOM     14  N   ARG A   1       2.608  24.226  16.965  0.00  0.00    -0.239 NA
ATOM     15  H   ARG A   1       2.259  23.363  16.502  0.00  0.00    +0.142 HD
ENDBRANCH  13  14
BRANCH  13  16
ATOM     16  C   ARG A   1       3.573  26.289  16.071  0.00  0.00    +0.224 C 
ATOM     17  O   ARG A   1       2.603  26.479  15.337  0.00  0.00    -0.287 OA
ENDBRANCH  13  16
ENDBRANCH  12  13
ENDBRANCH  11  12
ENDBRANCH  10  11
ENDBRANCH   1  10
TORSDOF 6
REMARK  Name = ../refined-set-2016/5bry/5bry_pocket.pdb
REMARK  226 active torsions:
REMARK  status: ('A' for Active; 'I' for Inactive)
REMARK    1  A    between atoms: _1  and  _3
REMARK    2  A    between atoms: _3  and  _4
REMARK    3  A    between atoms: _3  and  _6
REMARK    4  A    between atoms: _6  and  _7
REMARK    5  A    between atoms: _7  and  _8
REMARK    6  A    between atoms: _8  and  _9
REMARK    7  A    between atoms: _18  and  _20
REMARK    8  A    between atoms: _20  and  _21
REMARK    9  A    between atoms: _20  and  _23
REMARK   10  A    between atoms: _23  and  _24
REMARK   11  A    between atoms: _27  and  _29
REMARK   12  A    between atoms: _29  and  _30
REMARK   13  A    between atoms: _29  and  _32
REMARK   14  A    between atoms: _32  and  _33
REMARK   15  A    between atoms: _36  and  _38
REMARK   16  A    between atoms: _38  and  _39
REMARK   17  A    between atoms: _38  and  _41
REMARK   18  A    between atoms: _41  and  _42
REMARK   19  A    between atoms: _45  and  _47
REMARK   20  A    between atoms: _47  and  _48
REMARK   21  A    between atoms: _47  and  _50
REMARK   22  A    between atoms: _50  and  _51
REMARK   23  A    between atoms: _54  and  _56
REMARK   24  A    between atoms: _56  and  _57
REMARK   25  A    between atoms: _59  and  _61
REMARK   26  A    between atoms: _61  and  _62
REMARK   27  A    between atoms: _65  and  _67
REMARK   28  A    between atoms: _67  and  _68
REMARK   29  A    between atoms: _67  and  _70
REMARK   30  A    between atoms: _70  and  _71
REMARK   31  A    between atoms: _74  and  _76
REMARK   32  A    between atoms: _76  and  _77
REMARK   33  A    between atoms: _76  and  _79
REMARK   34  A    between atoms: _79  and  _80
REMARK   35  A    between atoms: _83  and  _85
REMARK   36  A    between atoms: _85  and  _86
REMARK   37  A    between atoms: _85  and  _88
REMARK   38  A    between atoms: _88  and  _89
REMARK   39  A    between atoms: _92  and  _94
REMARK   40  A    between atoms: _94  and  _95
REMARK   41  A    between atoms: _94  and  _97
REMARK   42  A    between atoms: _100  and  _102
REMARK   43  A    between atoms: _102  and  _103
REMARK   44  A    between atoms: _102  and  _105
REMARK   45  A    between atoms: _105  and  _106
REMARK   46  A    between atoms: _106  and  _107
REMARK   47  A    between atoms: _107  and  _108
REMARK   48  A    between atoms: _108  and  _109
REMARK   49  A    between atoms: _113  and  _115
REMARK   50  A    between atoms: _115  and  _116
REMARK   51  A    between atoms: _115  and  _118
REMARK   52  A    between atoms: _118  and  _119
REMARK   53  A    between atoms: _119  and  _120
REMARK   54  A    between atoms: _122  and  _124
REMARK   55  A    between atoms: _124  and  _125
REMARK   56  A    between atoms: _124  and  _127
REMARK   57  A    between atoms: _127  and  _128
REMARK   58  A    between atoms: _131  and  _133
REMARK   59  A    between atoms: _133  and  _134
REMARK   60  A    between atoms: _136  and  _138
REMARK   61  A    between atoms: _138  and  _139
REMARK   62  A    between atoms: _141  and  _143
REMARK   63  A    between atoms: _143  and  _144
REMARK   64  A    between atoms: _143  and  _146
REMARK   65  A    between atoms: _146  and  _147
REMARK   66  A    between atoms: _150  and  _152
REMARK   67  A    between atoms: _152  and  _153
REMARK   68  A    between atoms: _155  and  _157
REMARK   69  A    between atoms: _157  and  _158
REMARK   70  A    between atoms: _160  and  _162
REMARK   71  A    between atoms: _162  and  _163
REMARK   72  A    between atoms: _162  and  _165
REMARK   73  A    between atoms: _165  and  _166
REMARK   74  A    between atoms: _172  and  _174
REMARK   75  A    between atoms: _174  and  _175
REMARK   76  A    between atoms: _174  and  _177
REMARK   77  A    between atoms: _177  and  _178
REMARK   78  A    between atoms: _181  and  _183
REMARK   79  A    between atoms: _183  and  _184
REMARK   80  A    between atoms: _183  and  _186
REMARK   81  A    between atoms: _189  and  _191
REMARK   82  A    between atoms: _191  and  _192
REMARK   83  A    between atoms: _191  and  _194
REMARK   84  A    between atoms: _194  and  _195
REMARK   85  A    between atoms: _199  and  _200
REMARK   86  A    between atoms: _205  and  _207
REMARK   87  A    between atoms: _207  and  _208
REMARK   88  A    between atoms: _207  and  _210
REMARK   89  A    between atoms: _210  and  _211
REMARK   90  A    between atoms: _215  and  _216
REMARK   91  A    between atoms: _221  and  _223
REMARK   92  A    between atoms: _223  and  _224
REMARK   93  A    between atoms: _223  and  _226
REMARK   94  A    between atoms: _229  and  _231
REMARK   95  A    between atoms: _231  and  _232
REMARK   96  A    between atoms: _231  and  _234
REMARK   97  A    between atoms: _234  and  _235
REMARK   98  A    between atoms: _240  and  _242
REMARK   99  A    between atoms: _242  and  _243
REMARK  100  A    between atoms: _242  and  _245
REMARK  101  A    between atoms: _245  and  _246
REMARK  102  A    between atoms: _249  and  _251
REMARK  103  A    between atoms: _251  and  _252
REMARK  104  A    between atoms: _251  and  _254
REMARK  105  A    between atoms: _254  and  _255
REMARK  106  A    between atoms: _258  and  _260
REMARK  107  A    between atoms: _260  and  _261
REMARK  108  A    between atoms: _263  and  _265
REMARK  109  A    between atoms: _265  and  _266
REMARK  110  A    between atoms: _265  and  _268
REMARK  111  A    between atoms: _268  and  _269
REMARK  112  A    between atoms: _269  and  _270
REMARK  113  A    between atoms: _270  and  _271
REMARK  114  A    between atoms: _280  and  _282
REMARK  115  A    between atoms: _282  and  _283
REMARK  116  A    between atoms: _282  and  _285
REMARK  117  A    between atoms: _285  and  _286
REMARK  118  A    between atoms: _291  and  _293
REMARK  119  A    between atoms: _293  and  _294
REMARK  120  A    between atoms: _293  and  _296
REMARK  121  A    between atoms: _296  and  _297
REMARK  122  A    between atoms: _297  and  _298
REMARK  123  A    between atoms: _298  and  _299
REMARK  124  A    between atoms: _308  and  _310
REMARK  125  A    between atoms: _310  and  _311
REMARK  126  A    between atoms: _310  and  _313
REMARK  127  A    between atoms: _313  and  _314
REMARK  128  A    between atoms: _317  and  _319
REMARK  129  A    between atoms: _319  and  _320
REMARK  130  A    between atoms: _319  and  _322
REMARK  131  A    between atoms: _322  and  _323
REMARK  132  A    between atoms: _326  and  _328
REMARK  133  A    between atoms: _328  and  _329
REMARK  134  A    between atoms: _328  and  _331
REMARK  135  A    between atoms: _331  and  _332
REMARK  136  A    between atoms: _335  and  _337
REMARK  137  A    between atoms: _337  and  _338
REMARK  138  A    between atoms: _337  and  _340
REMARK  139  A    between atoms: _340  and  _341
REMARK  140  A    between atoms: _344  and  _346
REMARK  141  A    between atoms: _346  and  _347
REMARK  142  A    between atoms: _349  and  _351
REMARK  143  A    between atoms: _351  and  _352
REMARK  144  A    between atoms: _355  and  _357
REMARK  145  A    between atoms: _357  and  _358
REMARK  146  A    between atoms: _357  and  _360
REMARK  147  A    between atoms: _360  and  _361
REMARK  148  A    between atoms: _364  and  _366
REMARK  149  A    between atoms: _366  and  _367
REMARK  150  A    between atoms: _366  and  _369
REMARK  151  A    between atoms: _369  and  _370
REMARK  152  A    between atoms: _373  and  _375
REMARK  153  A    between atoms: _375  and  _376
REMARK  154  A    between atoms: _375  and  _378
REMARK  155  A    between atoms: _378  and  _379
REMARK  156  A    between atoms: _382  and  _384
REMARK  157  A    between atoms: _384  and  _385
REMARK  158  A    between atoms: _384  and  _387
REMARK  159  A    between atoms: _390  and  _392
REMARK  160  A    between atoms: _392  and  _393
REMARK  161  A    between atoms: _392  and  _395
REMARK  162  A    between atoms: _395  and  _396
REMARK  163  A    between atoms: _396  and  _397
REMARK  164  A    between atoms: _397  and  _398
REMARK  165  A    between atoms: _398  and  _399
REMARK  166  A    between atoms: _403  and  _405
REMARK  167  A    between atoms: _405  and  _406
REMARK  168  A    between atoms: _405  and  _408
REMARK  169  A    between atoms: _408  and  _409
REMARK  170  A    between atoms: _409  and  _410
REMARK  171  A    between atoms: _412  and  _414
REMARK  172  A    between atoms: _414  and  _415
REMARK  173  A    between atoms: _414  and  _417
REMARK  174  A    between atoms: _417  and  _418
REMARK  175  A    between atoms: _421  and  _423
REMARK  176  A    between atoms: _423  and  _424
REMARK  177  A    between atoms: _426  and  _428
REMARK  178  A    between atoms: _428  and  _429
REMARK  179  A    between atoms: _431  and  _433
REMARK  180  A    between atoms: _433  and  _434
REMARK  181  A    between atoms: _433  and  _436
REMARK  182  A    between atoms: _436  and  _437
REMARK  183  A    between atoms: _440  and  _442
REMARK  184  A    between atoms: _442  and  _443
REMARK  185  A    between atoms: _445  and  _447
REMARK  186  A    between atoms: _447  and  _448
REMARK  187  A    between atoms: _450  and  _452
REMARK  188  A    between atoms: _452  and  _453
REMARK  189  A    between atoms: _452  and  _455
REMARK  190  A    between atoms: _455  and  _456
REMARK  191  A    between atoms: _462  and  _464
REMARK  192  A    between atoms: _464  and  _465
REMARK  193  A    between atoms: _464  and  _467
REMARK  194  A    between atoms: _467  and  _468
REMARK  195  A    between atoms: _471  and  _473
REMARK  196  A    between atoms: _473  and  _474
REMARK  197  A    between atoms: _473  and  _476
REMARK  198  A    between atoms: _476  and  _477
REMARK  199  A    between atoms: _480  and  _482
REMARK  200  A    between atoms: _482  and  _483
REMARK  201  A    between atoms: _482  and  _485
REMARK  202  A    between atoms: _485  and  _486
REMARK  203  A    between atoms: _490  and  _491
REMARK  204  A    between atoms: _496  and  _498
REMARK  205  A    between atoms: _498  and  _499
REMARK  206  A    between atoms: _498  and  _501
REMARK  207  A    between atoms: _504  and  _506
REMARK  208  A    between atoms: _506  and  _507
REMARK  209  A    between atoms: _506  and  _509
REMARK  210  A    between atoms: _509  and  _510
REMARK  211  A    between atoms: _515  and  _517
REMARK  212  A    between atoms: _517  and  _518
REMARK  213  A    between atoms: _517  and  _520
REMARK  214  A    between atoms: _520  and  _521
REMARK  215  A    between atoms: _524  and  _526
REMARK  216  A    between atoms: _526  and  _527
REMARK  217  A    between atoms: _529  and  _531
REMARK  218  A    between atoms: _531  and  _532
REMARK  219  A    between atoms: _531  and  _534
REMARK  220  A    between atoms: _534  and  _535
REMARK  221  A    between atoms: _535  and  _536
REMARK  222  A    between atoms: _536  and  _537
REMARK  223  A    between atoms: _546  and  _548
REMARK  224  A    between atoms: _548  and  _549
REMARK  225  A    between atoms: _548  and  _551
REMARK  226  A    between atoms: _551  and  _552
REMARK                            x       y       z     vdW  Elec       q    Type
REMARK                         _______ _______ _______ _____ _____    ______ ____
ROOT
ATOM      1  C   GLY A   5      16.945  28.330  19.620  0.00  0.00    +0.243 C 
ATOM      2  O   GLY A   5      18.005  27.679  19.758  0.00  0.00    -0.273 OA
ATOM      3  N   ALA A   6      16.668  29.073  18.527  0.00  0.00    -0.297 N 
ATOM      4  H   ALA A   6      15.762  29.582  18.481  0.00  0.00    +0.150 HD
ENDROOT
BRANCH   3   5
ATOM      5  CA  ALA A   6      17.606  29.187  17.398  0.00  0.00    +0.149 C 
ATOM      6  CB  ALA A   6      16.838  29.079  16.077  0.00  0.00    +0.031 C 
BRANCH   5   7
ATOM      7  C   ALA A   6      18.295  30.533  17.469  0.00  0.00    +0.241 C 
ATOM      8  N   ASP A   7      19.639  30.533  17.543  0.00  0.00    -0.297 N 
ATOM      9  H   ASP A   7      20.174  29.644  17.622  0.00  0.00    +0.150 HD
ATOM     10  O   ALA A   6      17.638  31.595  17.442  0.00  0.00    -0.273 OA
BRANCH   8  11
ATOM     11  CA  ASP A   7      20.329  31.841  17.508  0.00  0.00    +0.160 C 
BRANCH  11  12
ATOM     12  C   ASP A   7      20.129  32.519  16.163  0.00  0.00    +0.241 C 
ATOM     13  O   ASP A   7      20.045  33.765  16.085  0.00  0.00    -0.273 OA
ATOM     14  N   ASP A   8      20.145  31.711  15.105  0.00  0.00    -0.297 N 
ATOM     15  H   ASP A   8      20.146  30.683  15.261  0.00  0.00    +0.150 HD
BRANCH  14  16
ATOM     16  CA  ASP A   8      20.161  32.213  13.737  0.00  0.00    +0.160 C 
BRANCH  16  17
ATOM     17  C   ASP A   8      18.951  31.704  12.942  0.00  0.00    +0.241 C 
ATOM     18  O   ASP A   8      18.311  30.730  13.312  0.00  0.00    -0.273 OA
ATOM     19  N   THR A   9      18.620  32.370  11.871  0.00  0.00    -0.295 N 
ATOM     20  H   THR A   9      19.161  33.232  11.657  0.00  0.00    +0.150 HD
BRANCH  19  21
ATOM     21  CA  THR A   9      17.543  31.999  10.943  0.00  0.00    +0.176 C 
BRANCH  21  22
ATOM     22  C   THR A   9      18.096  31.073   9.876  0.00  0.00    +0.243 C 
ATOM     23  N   VAL A  10      17.456  29.917   9.650  0.00  0.00    -0.298 N 
ATOM     24  H   VAL A  10      16.551  29.759  10.138  0.00  0.00    +0.150 HD
ATOM     25  O   THR A   9      19.148  31.371   9.266  0.00  0.00    -0.273 OA
BRANCH  23  26
ATOM     26  CA  VAL A  10      17.946  28.864   8.764  0.00  0.00    +0.137 C 
BRANCH  26  27
ATOM     27  CB  VAL A  10      18.424  27.609   9.528  0.00  0.00    +0.026 C 
ATOM     28  CG2 VAL A  10      19.283  27.956  10.744  0.00  0.00    +0.002 C 
ATOM     29  CG1 VAL A  10      19.196  26.711   8.559  0.00  0.00    +0.002 C 
ENDBRANCH  26  27
BRANCH  26  30
ATOM     30  C   VAL A  10      16.801  28.494   7.842  0.00  0.00    +0.227 C 
ATOM     31  O   VAL A  10      15.722  28.110   8.357  0.00  0.00    -0.286 OA
ENDBRANCH  26  30
ENDBRANCH  23  26
ENDBRANCH  21  22
BRANCH  21  32
ATOM     32  CB  THR A   9      17.022  33.324  10.346  0.00  0.00    +0.137 C 
ATOM     33  CG2 THR A   9      15.997  33.110   9.231  0.00  0.00    +0.034 C 
BRANCH  32  34
ATOM     34  OG1 THR A   9      16.365  34.055  11.377  0.00  0.00    -0.382 OA
ATOM     35  HG1 THR A   9      17.006  34.241  12.108  0.00  0.00    +0.210 HD
ENDBRANCH  32  34
ENDBRANCH  21  32
ENDBRANCH  19  21
ENDBRANCH  16  17
BRANCH  16  36
ATOM     36  CB  ASP A   8      21.427  31.766  13.004  0.00  0.00    +0.143 C 
BRANCH  36  37
ATOM     37  CG  ASP A   8      22.717  32.360  13.551  0.00  0.00    +0.367 C 
ATOM     38  OD2 ASP A   8      22.611  33.411  14.232  0.00  0.00    -0.246 OA
ATOM     39  OD1 ASP A   8      23.852  31.838  13.339  0.00  0.00    -0.246 OA
ENDBRANCH  36  37
ENDBRANCH  16  36
ENDBRANCH  14  16
ENDBRANCH  11  12
BRANCH  11  40
ATOM     40  CB  ASP A   7      21.844  31.614  17.713  0.00  0.00    +0.143 C 
BRANCH  40  41
ATOM     41  CG  ASP A   7      22.269  30.967  19.014  0.00  0.00    +0.367 C 
ATOM     42  OD2 ASP A   7      21.566  31.112  20.025  0.00  0.00    -0.246 OA
ATOM     43  OD1 ASP A   7      23.358  30.348  19.041  0.00  0.00    -0.246 OA
ENDBRANCH  40  41
ENDBRANCH  11  40
ENDBRANCH   8  11
ENDBRANCH   5   7
ENDBRANCH   3   5
BRANCH   1  44
ATOM     44  CA  GLY A   5      15.923  28.290  20.742  0.00  0.00    +0.176 C 
BRANCH  44  47
ATOM     45  C   THR A   4      14.657  30.392  20.692  0.00  0.00    +0.243 C 
ATOM     46  O   THR A   4      15.576  30.964  21.296  0.00  0.00    -0.273 OA
ATOM     47  N   GLY A   5      14.718  29.085  20.395  0.00  0.00    -0.295 N 
ATOM     48  H   GLY A   5      13.916  28.626  19.918  0.00  0.00    +0.150 HD
BRANCH  45  49
ATOM     49  CA  THR A   4      13.397  31.155  20.324  0.00  0.00    +0.176 C 
BRANCH  49  51
ATOM     50  C   ASP A   3      13.001  30.275  18.115  0.00  0.00    +0.241 C 
ATOM     51  N   THR A   4      12.547  30.465  19.369  0.00  0.00    -0.295 N 
ATOM     52  H   THR A   4      11.605  30.124  19.648  0.00  0.00    +0.150 HD
ATOM     53  O   ASP A   3      14.124  30.655  17.740  0.00  0.00    -0.273 OA
BRANCH  50  54
ATOM     54  CA  ASP A   3      12.048  29.590  17.155  0.00  0.00    +0.160 C 
BRANCH  54  57
ATOM     55  C   LEU A   2       9.971  30.454  16.284  0.00  0.00    +0.241 C 
ATOM     56  O   LEU A   2       9.318  29.738  17.100  0.00  0.00    -0.273 OA
ATOM     57  N   ASP A   3      11.295  30.541  16.310  0.00  0.00    -0.297 N 
ATOM     58  H   ASP A   3      11.792  31.262  15.749  0.00  0.00    +0.150 HD
BRANCH  55  59
ATOM     59  CA  LEU A   2       9.213  31.165  15.175  0.00  0.00    +0.149 C 
BRANCH  59  61
ATOM     60  C   LEU A   1       9.346  29.469  13.438  0.00  0.00    +0.238 C 
ATOM     61  N   LEU A   2       8.628  30.153  14.317  0.00  0.00    -0.297 N 
ATOM     62  H   LEU A   2       7.610  29.957  14.394  0.00  0.00    +0.150 HD
ATOM     63  O   LEU A   1      10.534  29.699  13.228  0.00  0.00    -0.274 OA
BRANCH  60  64
ATOM     64  CA  LEU A   1       8.725  28.312  12.697  0.00  0.00    +0.145 C 
BRANCH  64  65
ATOM     65  N   LEU A   1       8.948  28.457  11.270  0.00  0.00    -0.238 NA
ATOM     66  H   LEU A   1       9.833  28.083  10.872  0.00  0.00    +0.142 HD
ENDBRANCH  64  65
BRANCH  64  67
ATOM     67  CB  LEU A   1       9.352  26.938  13.001  0.00  0.00    +0.026 C 
BRANCH  67  68
ATOM     68  CG  LEU A   1       9.217  26.359  14.378  0.00  0.00    +0.002 C 
ATOM     69  CD2 LEU A   1       7.786  25.967  14.654  0.00  0.00    +0.000 C 
ATOM     70  CD1 LEU A   1      10.178  25.163  14.503  0.00  0.00    +0.000 C 
ENDBRANCH  67  68
ENDBRANCH  64  67
ENDBRANCH  60  64
ENDBRANCH  59  61
BRANCH  59  71
ATOM     71  CB  LEU A   2       8.111  32.054  15.744  0.00  0.00    +0.029 C 
BRANCH  71  72
ATOM     72  CG  LEU A   2       7.285  32.844  14.722  0.00  0.00    +0.002 C 
ATOM     73  CD2 LEU A   2       6.338  33.769  15.496  0.00  0.00    +0.000 C 
ATOM     74  CD1 LEU A   2       8.162  33.597  13.741  0.00  0.00    +0.000 C 
ENDBRANCH  71  72
ENDBRANCH  59  71
ENDBRANCH  55  59
ENDBRANCH  54  57
BRANCH  54  75
ATOM     75  CB  ASP A   3      12.833  28.689  16.195  0.00  0.00    +0.143 C 
BRANCH  75  76
ATOM     76  CG  ASP A   3      13.505  27.552  16.929  0.00  0.00    +0.367 C 
ATOM     77  OD2 ASP A   3      13.490  27.520  18.204  0.00  0.00    -0.246 OA
ATOM     78  OD1 ASP A   3      14.081  26.681  16.258  0.00  0.00    -0.246 OA
ENDBRANCH  75  76
ENDBRANCH  54  75
ENDBRANCH  50  54
ENDBRANCH  49  51
BRANCH  49  79
ATOM     79  CB  THR A   4      12.592  31.445  21.620  0.00  0.00    +0.137 C 
ATOM     80  CG2 THR A   4      11.378  32.314  21.263  0.00  0.00    +0.034 C 
BRANCH  79  81
ATOM     81  OG1 THR A   4      12.160  30.219  22.201  0.00  0.00    -0.382 OA
ATOM     82  HG1 THR A   4      12.949  29.664  22.422  0.00  0.00    +0.210 HD
ENDBRANCH  79  81
ENDBRANCH  49  79
ENDBRANCH  45  49
ENDBRANCH  44  47
ENDBRANCH   1  44
TORSDOF 35
REMARK  Name = ../refined-set-2016/5bry/5bry_pocket.pdb
REMARK  226 active torsions:
REMARK  status: ('A' for Active; 'I' for Inactive)
REMARK    1  A    between atoms: _1  and  _3
REMARK    2  A    between atoms: _3  and  _4
REMARK    3  A    between atoms: _3  and  _6
REMARK    4  A    between atoms: _6  and  _7
REMARK    5  A    between atoms: _7  and  _8
REMARK    6  A    between atoms: _8  and  _9
REMARK    7  A    between atoms: _18  and  _20
REMARK    8  A    between atoms: _20  and  _21
REMARK    9  A    between atoms: _20  and  _23
REMARK   10  A    between atoms: _23  and  _24
REMARK   11  A    between atoms: _27  and  _29
REMARK   12  A    between atoms: _29  and  _30
REMARK   13  A    between atoms: _29  and  _32
REMARK   14  A    between atoms: _32  and  _33
REMARK   15  A    between atoms: _36  and  _38
REMARK   16  A    between atoms: _38  and  _39
REMARK   17  A    between atoms: _38  and  _41
REMARK   18  A    between atoms: _41  and  _42
REMARK   19  A    between atoms: _45  and  _47
REMARK   20  A    between atoms: _47  and  _48
REMARK   21  A    between atoms: _47  and  _50
REMARK   22  A    between atoms: _50  and  _51
REMARK   23  A    between atoms: _54  and  _56
REMARK   24  A    between atoms: _56  and  _57
REMARK   25  A    between atoms: _59  and  _61
REMARK   26  A    between atoms: _61  and  _62
REMARK   27  A    between atoms: _65  and  _67
REMARK   28  A    between atoms: _67  and  _68
REMARK   29  A    between atoms: _67  and  _70
REMARK   30  A    between atoms: _70  and  _71
REMARK   31  A    between atoms: _74  and  _76
REMARK   32  A    between atoms: _76  and  _77
REMARK   33  A    between atoms: _76  and  _79
REMARK   34  A    between atoms: _79  and  _80
REMARK   35  A    between atoms: _83  and  _85
REMARK   36  A    between atoms: _85  and  _86
REMARK   37  A    between atoms: _85  and  _88
REMARK   38  A    between atoms: _88  and  _89
REMARK   39  A    between atoms: _92  and  _94
REMARK   40  A    between atoms: _94  and  _95
REMARK   41  A    between atoms: _94  and  _97
REMARK   42  A    between atoms: _100  and  _102
REMARK   43  A    between atoms: _102  and  _103
REMARK   44  A    between atoms: _102  and  _105
REMARK   45  A    between atoms: _105  and  _106
REMARK   46  A    between atoms: _106  and  _107
REMARK   47  A    between atoms: _107  and  _108
REMARK   48  A    between atoms: _108  and  _109
REMARK   49  A    between atoms: _113  and  _115
REMARK   50  A    between atoms: _115  and  _116
REMARK   51  A    between atoms: _115  and  _118
REMARK   52  A    between atoms: _118  and  _119
REMARK   53  A    between atoms: _119  and  _120
REMARK   54  A    between atoms: _122  and  _124
REMARK   55  A    between atoms: _124  and  _125
REMARK   56  A    between atoms: _124  and  _127
REMARK   57  A    between atoms: _127  and  _128
REMARK   58  A    between atoms: _131  and  _133
REMARK   59  A    between atoms: _133  and  _134
REMARK   60  A    between atoms: _136  and  _138
REMARK   61  A    between atoms: _138  and  _139
REMARK   62  A    between atoms: _141  and  _143
REMARK   63  A    between atoms: _143  and  _144
REMARK   64  A    between atoms: _143  and  _146
REMARK   65  A    between atoms: _146  and  _147
REMARK   66  A    between atoms: _150  and  _152
REMARK   67  A    between atoms: _152  and  _153
REMARK   68  A    between atoms: _155  and  _157
REMARK   69  A    between atoms: _157  and  _158
REMARK   70  A    between atoms: _160  and  _162
REMARK   71  A    between atoms: _162  and  _163
REMARK   72  A    between atoms: _162  and  _165
REMARK   73  A    between atoms: _165  and  _166
REMARK   74  A    between atoms: _172  and  _174
REMARK   75  A    between atoms: _174  and  _175
REMARK   76  A    between atoms: _174  and  _177
REMARK   77  A    between atoms: _177  and  _178
REMARK   78  A    between atoms: _181  and  _183
REMARK   79  A    between atoms: _183  and  _184
REMARK   80  A    between atoms: _183  and  _186
REMARK   81  A    between atoms: _189  and  _191
REMARK   82  A    between atoms: _191  and  _192
REMARK   83  A    between atoms: _191  and  _194
REMARK   84  A    between atoms: _194  and  _195
REMARK   85  A    between atoms: _199  and  _200
REMARK   86  A    between atoms: _205  and  _207
REMARK   87  A    between atoms: _207  and  _208
REMARK   88  A    between atoms: _207  and  _210
REMARK   89  A    between atoms: _210  and  _211
REMARK   90  A    between atoms: _215  and  _216
REMARK   91  A    between atoms: _221  and  _223
REMARK   92  A    between atoms: _223  and  _224
REMARK   93  A    between atoms: _223  and  _226
REMARK   94  A    between atoms: _229  and  _231
REMARK   95  A    between atoms: _231  and  _232
REMARK   96  A    between atoms: _231  and  _234
REMARK   97  A    between atoms: _234  and  _235
REMARK   98  A    between atoms: _240  and  _242
REMARK   99  A    between atoms: _242  and  _243
REMARK  100  A    between atoms: _242  and  _245
REMARK  101  A    between atoms: _245  and  _246
REMARK  102  A    between atoms: _249  and  _251
REMARK  103  A    between atoms: _251  and  _252
REMARK  104  A    between atoms: _251  and  _254
REMARK  105  A    between atoms: _254  and  _255
REMARK  106  A    between atoms: _258  and  _260
REMARK  107  A    between atoms: _260  and  _261
REMARK  108  A    between atoms: _263  and  _265
REMARK  109  A    between atoms: _265  and  _266
REMARK  110  A    between atoms: _265  and  _268
REMARK  111  A    between atoms: _268  and  _269
REMARK  112  A    between atoms: _269  and  _270
REMARK  113  A    between atoms: _270  and  _271
REMARK  114  A    between atoms: _280  and  _282
REMARK  115  A    between atoms: _282  and  _283
REMARK  116  A    between atoms: _282  and  _285
REMARK  117  A    between atoms: _285  and  _286
REMARK  118  A    between atoms: _291  and  _293
REMARK  119  A    between atoms: _293  and  _294
REMARK  120  A    between atoms: _293  and  _296
REMARK  121  A    between atoms: _296  and  _297
REMARK  122  A    between atoms: _297  and  _298
REMARK  123  A    between atoms: _298  and  _299
REMARK  124  A    between atoms: _308  and  _310
REMARK  125  A    between atoms: _310  and  _311
REMARK  126  A    between atoms: _310  and  _313
REMARK  127  A    between atoms: _313  and  _314
REMARK  128  A    between atoms: _317  and  _319
REMARK  129  A    between atoms: _319  and  _320
REMARK  130  A    between atoms: _319  and  _322
REMARK  131  A    between atoms: _322  and  _323
REMARK  132  A    between atoms: _326  and  _328
REMARK  133  A    between atoms: _328  and  _329
REMARK  134  A    between atoms: _328  and  _331
REMARK  135  A    between atoms: _331  and  _332
REMARK  136  A    between atoms: _335  and  _337
REMARK  137  A    between atoms: _337  and  _338
REMARK  138  A    between atoms: _337  and  _340
REMARK  139  A    between atoms: _340  and  _341
REMARK  140  A    between atoms: _344  and  _346
REMARK  141  A    between atoms: _346  and  _347
REMARK  142  A    between atoms: _349  and  _351
REMARK  143  A    between atoms: _351  and  _352
REMARK  144  A    between atoms: _355  and  _357
REMARK  145  A    between atoms: _357  and  _358
REMARK  146  A    between atoms: _357  and  _360
REMARK  147  A    between atoms: _360  and  _361
REMARK  148  A    between atoms: _364  and  _366
REMARK  149  A    between atoms: _366  and  _367
REMARK  150  A    between atoms: _366  and  _369
REMARK  151  A    between atoms: _369  and  _370
REMARK  152  A    between atoms: _373  and  _375
REMARK  153  A    between atoms: _375  and  _376
REMARK  154  A    between atoms: _375  and  _378
REMARK  155  A    between atoms: _378  and  _379
REMARK  156  A    between atoms: _382  and  _384
REMARK  157  A    between atoms: _384  and  _385
REMARK  158  A    between atoms: _384  and  _387
REMARK  159  A    between atoms: _390  and  _392
REMARK  160  A    between atoms: _392  and  _393
REMARK  161  A    between atoms: _392  and  _395
REMARK  162  A    between atoms: _395  and  _396
REMARK  163  A    between atoms: _396  and  _397
REMARK  164  A    between atoms: _397  and  _398
REMARK  165  A    between atoms: _398  and  _399
REMARK  166  A    between atoms: _403  and  _405
REMARK  167  A    between atoms: _405  and  _406
REMARK  168  A    between atoms: _405  and  _408
REMARK  169  A    between atoms: _408  and  _409
REMARK  170  A    between atoms: _409  and  _410
REMARK  171  A    between atoms: _412  and  _414
REMARK  172  A    between atoms: _414  and  _415
REMARK  173  A    between atoms: _414  and  _417
REMARK  174  A    between atoms: _417  and  _418
REMARK  175  A    between atoms: _421  and  _423
REMARK  176  A    between atoms: _423  and  _424
REMARK  177  A    between atoms: _426  and  _428
REMARK  178  A    between atoms: _428  and  _429
REMARK  179  A    between atoms: _431  and  _433
REMARK  180  A    between atoms: _433  and  _434
REMARK  181  A    between atoms: _433  and  _436
REMARK  182  A    between atoms: _436  and  _437
REMARK  183  A    between atoms: _440  and  _442
REMARK  184  A    between atoms: _442  and  _443
REMARK  185  A    between atoms: _445  and  _447
REMARK  186  A    between atoms: _447  and  _448
REMARK  187  A    between atoms: _450  and  _452
REMARK  188  A    between atoms: _452  and  _453
REMARK  189  A    between atoms: _452  and  _455
REMARK  190  A    between atoms: _455  and  _456
REMARK  191  A    between atoms: _462  and  _464
REMARK  192  A    between atoms: _464  and  _465
REMARK  193  A    between atoms: _464  and  _467
REMARK  194  A    between atoms: _467  and  _468
REMARK  195  A    between atoms: _471  and  _473
REMARK  196  A    between atoms: _473  and  _474
REMARK  197  A    between atoms: _473  and  _476
REMARK  198  A    between atoms: _476  and  _477
REMARK  199  A    between atoms: _480  and  _482
REMARK  200  A    between atoms: _482  and  _483
REMARK  201  A    between atoms: _482  and  _485
REMARK  202  A    between atoms: _485  and  _486
REMARK  203  A    between atoms: _490  and  _491
REMARK  204  A    between atoms: _496  and  _498
REMARK  205  A    between atoms: _498  and  _499
REMARK  206  A    between atoms: _498  and  _501
REMARK  207  A    between atoms: _504  and  _506
REMARK  208  A    between atoms: _506  and  _507
REMARK  209  A    between atoms: _506  and  _509
REMARK  210  A    between atoms: _509  and  _510
REMARK  211  A    between atoms: _515  and  _517
REMARK  212  A    between atoms: _517  and  _518
REMARK  213  A    between atoms: _517  and  _520
REMARK  214  A    between atoms: _520  and  _521
REMARK  215  A    between atoms: _524  and  _526
REMARK  216  A    between atoms: _526  and  _527
REMARK  217  A    between atoms: _529  and  _531
REMARK  218  A    between atoms: _531  and  _532
REMARK  219  A    between atoms: _531  and  _534
REMARK  220  A    between atoms: _534  and  _535
REMARK  221  A    between atoms: _535  and  _536
REMARK  222  A    between atoms: _536  and  _537
REMARK  223  A    between atoms: _546  and  _548
REMARK  224  A    between atoms: _548  and  _549
REMARK  225  A    between atoms: _548  and  _551
REMARK  226  A    between atoms: _551  and  _552
REMARK                            x       y       z     vdW  Elec       q    Type
REMARK                         _______ _______ _______ _____ _____    ______ ____
ROOT
ATOM      1  C   GLY A   5      21.696  19.869  17.204  0.00  0.00    +0.243 C 
ATOM      2  N   ILE A   6      20.495  19.411  17.483  0.00  0.00    -0.297 N 
ATOM      3  H   ILE A   6      19.675  20.047  17.422  0.00  0.00    +0.150 HD
ATOM      4  O   GLY A   5      22.737  19.249  17.381  0.00  0.00    -0.273 OA
ENDROOT
BRANCH   1   5
ATOM      5  CA  GLY A   5      21.761  21.272  16.635  0.00  0.00    +0.176 C 
BRANCH   5   8
ATOM      6  C   GLY A   4      23.631  22.537  15.738  0.00  0.00    +0.243 C 
ATOM      7  O   GLY A   4      23.245  23.622  16.224  0.00  0.00    -0.273 OA
ATOM      8  N   GLY A   5      22.978  21.399  15.879  0.00  0.00    -0.295 N 
ATOM      9  H   GLY A   5      23.364  20.549  15.419  0.00  0.00    +0.150 HD
BRANCH   6  10
ATOM     10  CA  GLY A   4      24.887  22.394  14.916  0.00  0.00    +0.176 C 
BRANCH  10  12
ATOM     11  C   ILE A   3      25.315  23.751  12.981  0.00  0.00    +0.241 C 
ATOM     12  N   GLY A   4      25.171  23.682  14.292  0.00  0.00    -0.295 N 
ATOM     13  H   GLY A   4      25.259  24.539  14.875  0.00  0.00    +0.150 HD
ATOM     14  O   ILE A   3      25.093  22.800  12.247  0.00  0.00    -0.273 OA
BRANCH  11  15
ATOM     15  CA  ILE A   3      25.792  25.068  12.402  0.00  0.00    +0.149 C 
BRANCH  15  18
ATOM     16  C   MET A   2      27.807  25.359  11.125  0.00  0.00    +0.241 C 
ATOM     17  O   MET A   2      28.254  26.189  11.941  0.00  0.00    -0.273 OA
ATOM     18  N   ILE A   3      26.621  24.767  11.231  0.00  0.00    -0.297 N 
ATOM     19  H   ILE A   3      26.289  24.106  10.500  0.00  0.00    +0.150 HD
BRANCH  16  20
ATOM     20  CA  MET A   2      28.699  24.960   9.947  0.00  0.00    +0.149 C 
BRANCH  20  22
ATOM     21  C   LYS A   1      28.845  26.615   8.149  0.00  0.00    +0.238 C 
ATOM     22  N   MET A   2      29.236  26.162   9.348  0.00  0.00    -0.297 N 
ATOM     23  H   MET A   2      29.957  26.698   9.871  0.00  0.00    +0.150 HD
ATOM     24  O   LYS A   1      28.115  25.969   7.380  0.00  0.00    -0.274 OA
BRANCH  21  25
ATOM     25  CA  LYS A   1      29.333  28.002   7.733  0.00  0.00    +0.145 C 
BRANCH  25  26
ATOM     26  N   LYS A   1      29.404  28.091   6.293  0.00  0.00    -0.238 NA
ATOM     27  H   LYS A   1      28.713  27.555   5.729  0.00  0.00    +0.142 HD
ENDBRANCH  25  26
BRANCH  25  28
ATOM     28  CB  LYS A   1      28.386  29.091   8.251  0.00  0.00    +0.026 C 
BRANCH  28  29
ATOM     29  CG  LYS A   1      28.272  29.277   9.749  0.00  0.00    -0.000 C 
BRANCH  29  30
ATOM     30  CD  LYS A   1      27.247  30.354  10.091  0.00  0.00    -0.024 C 
BRANCH  30  31
ATOM     31  CE  LYS A   1      27.064  30.550  11.589  0.00  0.00    -0.086 C 
BRANCH  31  32
ATOM     32  NZ  LYS A   1      28.239  31.201  12.217  0.00  0.00    +0.380 N 
ATOM     33  HZ1 LYS A   1      28.068  31.313  13.237  0.00  0.00    -0.089 HD
ATOM     34  HZ2 LYS A   1      29.082  30.610  12.069  0.00  0.00    -0.089 HD
ATOM     35  HZ3 LYS A   1      28.389  32.135  11.785  0.00  0.00    -0.089 HD
ENDBRANCH  31  32
ENDBRANCH  30  31
ENDBRANCH  29  30
ENDBRANCH  28  29
ENDBRANCH  25  28
ENDBRANCH  21  25
ENDBRANCH  20  22
BRANCH  20  36
ATOM     36  CB  MET A   2      29.811  24.016  10.459  0.00  0.00    +0.041 C 
BRANCH  36  37
ATOM     37  CG  MET A   2      30.588  23.302   9.363  0.00  0.00    +0.060 C 
BRANCH  37  38
ATOM     38  SD  MET A   2      29.636  21.961   8.614  0.00  0.00    -0.139 S 
ATOM     39  CE  MET A   2      30.401  20.566   9.486  0.00  0.00    +0.069 C 
ENDBRANCH  37  38
ENDBRANCH  36  37
ENDBRANCH  20  36
ENDBRANCH  16  20
ENDBRANCH  15  18
BRANCH  15  40
ATOM     40  CB  ILE A   3      24.585  25.985  12.104  0.00  0.00    +0.027 C 
ATOM     41  CG2 ILE A   3      25.053  27.377  11.747  0.00  0.00    +0.002 C 
BRANCH  40  42
ATOM     42  CG1 ILE A   3      23.664  25.374  11.057  0.00  0.00    +0.002 C 
ATOM     43  CD1 ILE A   3      22.336  26.064  10.930  0.00  0.00    +0.000 C 
ENDBRANCH  40  42
ENDBRANCH  15  40
ENDBRANCH  11  15
ENDBRANCH  10  12
ENDBRANCH   6  10
ENDBRANCH   5   8
ENDBRANCH   1   5
BRANCH   2  44
ATOM     44  CA  ILE A   6      20.301  18.013  17.879  0.00  0.00    +0.149 C 
BRANCH  44  45
ATOM     45  C   ILE A   6      20.602  17.167  16.643  0.00  0.00    +0.241 C 
ATOM     46  N   GLY A   7      21.381  16.073  16.776  0.00  0.00    -0.295 N 
ATOM     47  H   GLY A   7      21.702  15.783  17.722  0.00  0.00    +0.150 HD
ATOM     48  O   ILE A   6      20.127  17.440  15.524  0.00  0.00    -0.273 OA
BRANCH  46  49
ATOM     49  CA  GLY A   7      21.776  15.297  15.615  0.00  0.00    +0.176 C 
BRANCH  49  50
ATOM     50  C   GLY A   7      23.189  15.673  15.206  0.00  0.00    +0.243 C 
ATOM     51  N   GLY A   8      23.638  16.919  15.381  0.00  0.00    -0.295 N 
ATOM     52  H   GLY A   8      23.086  17.636  15.893  0.00  0.00    +0.150 HD
ATOM     53  O   GLY A   7      23.948  14.840  14.720  0.00  0.00    -0.273 OA
BRANCH  51  54
ATOM     54  CA  GLY A   8      24.945  17.214  14.813  0.00  0.00    +0.176 C 
BRANCH  54  55
ATOM     55  C   GLY A   8      24.870  18.450  13.913  0.00  0.00    +0.243 C 
ATOM     56  O   GLY A   8      24.010  19.318  14.072  0.00  0.00    -0.273 OA
ATOM     57  N   PHE A   9      25.823  18.548  12.986  0.00  0.00    -0.297 N 
ATOM     58  H   PHE A   9      26.442  17.732  12.806  0.00  0.00    +0.150 HD
BRANCH  57  59
ATOM     59  CA  PHE A   9      26.015  19.759  12.228  0.00  0.00    +0.153 C 
BRANCH  59  60
ATOM     60  C   PHE A   9      25.579  19.642  10.783  0.00  0.00    +0.241 C 
ATOM     61  O   PHE A   9      25.664  18.532  10.226  0.00  0.00    -0.273 OA
ATOM     62  N   ILE A  10      25.167  20.758  10.205  0.00  0.00    -0.298 N 
ATOM     63  H   ILE A  10      24.969  21.595  10.790  0.00  0.00    +0.150 HD
BRANCH  62  64
ATOM     64  CA  ILE A  10      24.986  20.834   8.758  0.00  0.00    +0.137 C 
BRANCH  64  65
ATOM     65  CB  ILE A  10      23.510  20.995   8.367  0.00  0.00    +0.026 C 
ATOM     66  CG2 ILE A  10      22.726  19.756   8.770  0.00  0.00    +0.002 C 
BRANCH  65  67
ATOM     67  CG1 ILE A  10      22.862  22.266   8.900  0.00  0.00    +0.002 C 
ATOM     68  CD1 ILE A  10      21.445  22.465   8.373  0.00  0.00    +0.000 C 
ENDBRANCH  65  67
ENDBRANCH  64  65
BRANCH  64  69
ATOM     69  C   ILE A  10      25.807  21.996   8.222  0.00  0.00    +0.227 C 
ATOM     70  O   ILE A  10      26.082  22.976   8.924  0.00  0.00    -0.286 OA
ENDBRANCH  64  69
ENDBRANCH  62  64
ENDBRANCH  59  60
BRANCH  59  71
ATOM     71  CB  PHE A   9      27.498  20.167  12.217  0.00  0.00    +0.055 C 
BRANCH  71  72
ATOM     72  CG  PHE A   9      27.970  20.737  13.552  0.00  0.00    -0.020 A 
ATOM     73  CD2 PHE A   9      28.264  19.888  14.600  0.00  0.00    -0.004 A 
ATOM     74  CE2 PHE A   9      28.709  20.433  15.808  0.00  0.00    -0.000 A 
ATOM     75  CZ  PHE A   9      28.841  21.795  15.932  0.00  0.00    -0.000 A 
ATOM     76  CE1 PHE A   9      28.526  22.639  14.883  0.00  0.00    -0.000 A 
ATOM     77  CD1 PHE A   9      28.115  22.112  13.693  0.00  0.00    -0.004 A 
ENDBRANCH  71  72
ENDBRANCH  59  71
ENDBRANCH  57  59
ENDBRANCH  54  55
ENDBRANCH  51  54
ENDBRANCH  49  50
ENDBRANCH  46  49
ENDBRANCH  44  45
BRANCH  44  78
ATOM     78  CB  ILE A   6      18.875  17.846  18.415  0.00  0.00    +0.027 C 
ATOM     79  CG2 ILE A   6      18.300  16.546  17.933  0.00  0.00    +0.002 C 
BRANCH  78  80
ATOM     80  CG1 ILE A   6      18.703  17.872  19.955  0.00  0.00    +0.002 C 
ATOM     81  CD1 ILE A   6      17.265  18.024  20.365  0.00  0.00    +0.000 C 
ENDBRANCH  78  80
ENDBRANCH  44  78
ENDBRANCH   2  44
TORSDOF 36
REMARK  Name = ../refined-set-2016/5bry/5bry_pocket.pdb
REMARK  226 active torsions:
REMARK  status: ('A' for Active; 'I' for Inactive)
REMARK    1  A    between atoms: _1  and  _3
REMARK    2  A    between atoms: _3  and  _4
REMARK    3  A    between atoms: _3  and  _6
REMARK    4  A    between atoms: _6  and  _7
REMARK    5  A    between atoms: _7  and  _8
REMARK    6  A    between atoms: _8  and  _9
REMARK    7  A    between atoms: _18  and  _20
REMARK    8  A    between atoms: _20  and  _21
REMARK    9  A    between atoms: _20  and  _23
REMARK   10  A    between atoms: _23  and  _24
REMARK   11  A    between atoms: _27  and  _29
REMARK   12  A    between atoms: _29  and  _30
REMARK   13  A    between atoms: _29  and  _32
REMARK   14  A    between atoms: _32  and  _33
REMARK   15  A    between atoms: _36  and  _38
REMARK   16  A    between atoms: _38  and  _39
REMARK   17  A    between atoms: _38  and  _41
REMARK   18  A    between atoms: _41  and  _42
REMARK   19  A    between atoms: _45  and  _47
REMARK   20  A    between atoms: _47  and  _48
REMARK   21  A    between atoms: _47  and  _50
REMARK   22  A    between atoms: _50  and  _51
REMARK   23  A    between atoms: _54  and  _56
REMARK   24  A    between atoms: _56  and  _57
REMARK   25  A    between atoms: _59  and  _61
REMARK   26  A    between atoms: _61  and  _62
REMARK   27  A    between atoms: _65  and  _67
REMARK   28  A    between atoms: _67  and  _68
REMARK   29  A    between atoms: _67  and  _70
REMARK   30  A    between atoms: _70  and  _71
REMARK   31  A    between atoms: _74  and  _76
REMARK   32  A    between atoms: _76  and  _77
REMARK   33  A    between atoms: _76  and  _79
REMARK   34  A    between atoms: _79  and  _80
REMARK   35  A    between atoms: _83  and  _85
REMARK   36  A    between atoms: _85  and  _86
REMARK   37  A    between atoms: _85  and  _88
REMARK   38  A    between atoms: _88  and  _89
REMARK   39  A    between atoms: _92  and  _94
REMARK   40  A    between atoms: _94  and  _95
REMARK   41  A    between atoms: _94  and  _97
REMARK   42  A    between atoms: _100  and  _102
REMARK   43  A    between atoms: _102  and  _103
REMARK   44  A    between atoms: _102  and  _105
REMARK   45  A    between atoms: _105  and  _106
REMARK   46  A    between atoms: _106  and  _107
REMARK   47  A    between atoms: _107  and  _108
REMARK   48  A    between atoms: _108  and  _109
REMARK   49  A    between atoms: _113  and  _115
REMARK   50  A    between atoms: _115  and  _116
REMARK   51  A    between atoms: _115  and  _118
REMARK   52  A    between atoms: _118  and  _119
REMARK   53  A    between atoms: _119  and  _120
REMARK   54  A    between atoms: _122  and  _124
REMARK   55  A    between atoms: _124  and  _125
REMARK   56  A    between atoms: _124  and  _127
REMARK   57  A    between atoms: _127  and  _128
REMARK   58  A    between atoms: _131  and  _133
REMARK   59  A    between atoms: _133  and  _134
REMARK   60  A    between atoms: _136  and  _138
REMARK   61  A    between atoms: _138  and  _139
REMARK   62  A    between atoms: _141  and  _143
REMARK   63  A    between atoms: _143  and  _144
REMARK   64  A    between atoms: _143  and  _146
REMARK   65  A    between atoms: _146  and  _147
REMARK   66  A    between atoms: _150  and  _152
REMARK   67  A    between atoms: _152  and  _153
REMARK   68  A    between atoms: _155  and  _157
REMARK   69  A    between atoms: _157  and  _158
REMARK   70  A    between atoms: _160  and  _162
REMARK   71  A    between atoms: _162  and  _163
REMARK   72  A    between atoms: _162  and  _165
REMARK   73  A    between atoms: _165  and  _166
REMARK   74  A    between atoms: _172  and  _174
REMARK   75  A    between atoms: _174  and  _175
REMARK   76  A    between atoms: _174  and  _177
REMARK   77  A    between atoms: _177  and  _178
REMARK   78  A    between atoms: _181  and  _183
REMARK   79  A    between atoms: _183  and  _184
REMARK   80  A    between atoms: _183  and  _186
REMARK   81  A    between atoms: _189  and  _191
REMARK   82  A    between atoms: _191  and  _192
REMARK   83  A    between atoms: _191  and  _194
REMARK   84  A    between atoms: _194  and  _195
REMARK   85  A    between atoms: _199  and  _200
REMARK   86  A    between atoms: _205  and  _207
REMARK   87  A    between atoms: _207  and  _208
REMARK   88  A    between atoms: _207  and  _210
REMARK   89  A    between atoms: _210  and  _211
REMARK   90  A    between atoms: _215  and  _216
REMARK   91  A    between atoms: _221  and  _223
REMARK   92  A    between atoms: _223  and  _224
REMARK   93  A    between atoms: _223  and  _226
REMARK   94  A    between atoms: _229  and  _231
REMARK   95  A    between atoms: _231  and  _232
REMARK   96  A    between atoms: _231  and  _234
REMARK   97  A    between atoms: _234  and  _235
REMARK   98  A    between atoms: _240  and  _242
REMARK   99  A    between atoms: _242  and  _243
REMARK  100  A    between atoms: _242  and  _245
REMARK  101  A    between atoms: _245  and  _246
REMARK  102  A    between atoms: _249  and  _251
REMARK  103  A    between atoms: _251  and  _252
REMARK  104  A    between atoms: _251  and  _254
REMARK  105  A    between atoms: _254  and  _255
REMARK  106  A    between atoms: _258  and  _260
REMARK  107  A    between atoms: _260  and  _261
REMARK  108  A    between atoms: _263  and  _265
REMARK  109  A    between atoms: _265  and  _266
REMARK  110  A    between atoms: _265  and  _268
REMARK  111  A    between atoms: _268  and  _269
REMARK  112  A    between atoms: _269  and  _270
REMARK  113  A    between atoms: _270  and  _271
REMARK  114  A    between atoms: _280  and  _282
REMARK  115  A    between atoms: _282  and  _283
REMARK  116  A    between atoms: _282  and  _285
REMARK  117  A    between atoms: _285  and  _286
REMARK  118  A    between atoms: _291  and  _293
REMARK  119  A    between atoms: _293  and  _294
REMARK  120  A    between atoms: _293  and  _296
REMARK  121  A    between atoms: _296  and  _297
REMARK  122  A    between atoms: _297  and  _298
REMARK  123  A    between atoms: _298  and  _299
REMARK  124  A    between atoms: _308  and  _310
REMARK  125  A    between atoms: _310  and  _311
REMARK  126  A    between atoms: _310  and  _313
REMARK  127  A    between atoms: _313  and  _314
REMARK  128  A    between atoms: _317  and  _319
REMARK  129  A    between atoms: _319  and  _320
REMARK  130  A    between atoms: _319  and  _322
REMARK  131  A    between atoms: _322  and  _323
REMARK  132  A    between atoms: _326  and  _328
REMARK  133  A    between atoms: _328  and  _329
REMARK  134  A    between atoms: _328  and  _331
REMARK  135  A    between atoms: _331  and  _332
REMARK  136  A    between atoms: _335  and  _337
REMARK  137  A    between atoms: _337  and  _338
REMARK  138  A    between atoms: _337  and  _340
REMARK  139  A    between atoms: _340  and  _341
REMARK  140  A    between atoms: _344  and  _346
REMARK  141  A    between atoms: _346  and  _347
REMARK  142  A    between atoms: _349  and  _351
REMARK  143  A    between atoms: _351  and  _352
REMARK  144  A    between atoms: _355  and  _357
REMARK  145  A    between atoms: _357  and  _358
REMARK  146  A    between atoms: _357  and  _360
REMARK  147  A    between atoms: _360  and  _361
REMARK  148  A    between atoms: _364  and  _366
REMARK  149  A    between atoms: _366  and  _367
REMARK  150  A    between atoms: _366  and  _369
REMARK  151  A    between atoms: _369  and  _370
REMARK  152  A    between atoms: _373  and  _375
REMARK  153  A    between atoms: _375  and  _376
REMARK  154  A    between atoms: _375  and  _378
REMARK  155  A    between atoms: _378  and  _379
REMARK  156  A    between atoms: _382  and  _384
REMARK  157  A    between atoms: _384  and  _385
REMARK  158  A    between atoms: _384  and  _387
REMARK  159  A    between atoms: _390  and  _392
REMARK  160  A    between atoms: _392  and  _393
REMARK  161  A    between atoms: _392  and  _395
REMARK  162  A    between atoms: _395  and  _396
REMARK  163  A    between atoms: _396  and  _397
REMARK  164  A    between atoms: _397  and  _398
REMARK  165  A    between atoms: _398  and  _399
REMARK  166  A    between atoms: _403  and  _405
REMARK  167  A    between atoms: _405  and  _406
REMARK  168  A    between atoms: _405  and  _408
REMARK  169  A    between atoms: _408  and  _409
REMARK  170  A    between atoms: _409  and  _410
REMARK  171  A    between atoms: _412  and  _414
REMARK  172  A    between atoms: _414  and  _415
REMARK  173  A    between atoms: _414  and  _417
REMARK  174  A    between atoms: _417  and  _418
REMARK  175  A    between atoms: _421  and  _423
REMARK  176  A    between atoms: _423  and  _424
REMARK  177  A    between atoms: _426  and  _428
REMARK  178  A    between atoms: _428  and  _429
REMARK  179  A    between atoms: _431  and  _433
REMARK  180  A    between atoms: _433  and  _434
REMARK  181  A    between atoms: _433  and  _436
REMARK  182  A    between atoms: _436  and  _437
REMARK  183  A    between atoms: _440  and  _442
REMARK  184  A    between atoms: _442  and  _443
REMARK  185  A    between atoms: _445  and  _447
REMARK  186  A    between atoms: _447  and  _448
REMARK  187  A    between atoms: _450  and  _452
REMARK  188  A    between atoms: _452  and  _453
REMARK  189  A    between atoms: _452  and  _455
REMARK  190  A    between atoms: _455  and  _456
REMARK  191  A    between atoms: _462  and  _464
REMARK  192  A    between atoms: _464  and  _465
REMARK  193  A    between atoms: _464  and  _467
REMARK  194  A    between atoms: _467  and  _468
REMARK  195  A    between atoms: _471  and  _473
REMARK  196  A    between atoms: _473  and  _474
REMARK  197  A    between atoms: _473  and  _476
REMARK  198  A    between atoms: _476  and  _477
REMARK  199  A    between atoms: _480  and  _482
REMARK  200  A    between atoms: _482  and  _483
REMARK  201  A    between atoms: _482  and  _485
REMARK  202  A    between atoms: _485  and  _486
REMARK  203  A    between atoms: _490  and  _491
REMARK  204  A    between atoms: _496  and  _498
REMARK  205  A    between atoms: _498  and  _499
REMARK  206  A    between atoms: _498  and  _501
REMARK  207  A    between atoms: _504  and  _506
REMARK  208  A    between atoms: _506  and  _507
REMARK  209  A    between atoms: _506  and  _509
REMARK  210  A    between atoms: _509  and  _510
REMARK  211  A    between atoms: _515  and  _517
REMARK  212  A    between atoms: _517  and  _518
REMARK  213  A    between atoms: _517  and  _520
REMARK  214  A    between atoms: _520  and  _521
REMARK  215  A    between atoms: _524  and  _526
REMARK  216  A    between atoms: _526  and  _527
REMARK  217  A    between atoms: _529  and  _531
REMARK  218  A    between atoms: _531  and  _532
REMARK  219  A    between atoms: _531  and  _534
REMARK  220  A    between atoms: _534  and  _535
REMARK  221  A    between atoms: _535  and  _536
REMARK  222  A    between atoms: _536  and  _537
REMARK  223  A    between atoms: _546  and  _548
REMARK  224  A    between atoms: _548  and  _549
REMARK  225  A    between atoms: _548  and  _551
REMARK  226  A    between atoms: _551  and  _552
REMARK                            x       y       z     vdW  Elec       q    Type
REMARK                         _______ _______ _______ _____ _____    ______ ____
ROOT
ATOM      1  CA  VAL A   1      25.013  26.136   5.243  0.00  0.00    +0.133 C 
ENDROOT
BRANCH   1   2
ATOM      2  CB  VAL A   1      24.144  26.776   6.346  0.00  0.00    +0.023 C 
ATOM      3  CG2 VAL A   1      24.997  27.518   7.385  0.00  0.00    +0.002 C 
ATOM      4  CG1 VAL A   1      23.302  25.725   7.042  0.00  0.00    +0.002 C 
ENDBRANCH   1   2
BRANCH   1   5
ATOM      5  N   VAL A   1      25.944  25.160   5.806  0.00  0.00    -0.239 NA
ATOM      6  H   VAL A   1      26.742  25.493   6.384  0.00  0.00    +0.142 HD
ENDBRANCH   1   5
BRANCH   1   7
ATOM      7  C   VAL A   1      25.756  27.249   4.502  0.00  0.00    +0.224 C 
ATOM      8  O   VAL A   1      26.980  27.399   4.633  0.00  0.00    -0.287 OA
ENDBRANCH   1   7
TORSDOF 3
REMARK  Name = ../refined-set-2016/5bry/5bry_pocket.pdb
REMARK  226 active torsions:
REMARK  status: ('A' for Active; 'I' for Inactive)
REMARK    1  A    between atoms: _1  and  _3
REMARK    2  A    between atoms: _3  and  _4
REMARK    3  A    between atoms: _3  and  _6
REMARK    4  A    between atoms: _6  and  _7
REMARK    5  A    between atoms: _7  and  _8
REMARK    6  A    between atoms: _8  and  _9
REMARK    7  A    between atoms: _18  and  _20
REMARK    8  A    between atoms: _20  and  _21
REMARK    9  A    between atoms: _20  and  _23
REMARK   10  A    between atoms: _23  and  _24
REMARK   11  A    between atoms: _27  and  _29
REMARK   12  A    between atoms: _29  and  _30
REMARK   13  A    between atoms: _29  and  _32
REMARK   14  A    between atoms: _32  and  _33
REMARK   15  A    between atoms: _36  and  _38
REMARK   16  A    between atoms: _38  and  _39
REMARK   17  A    between atoms: _38  and  _41
REMARK   18  A    between atoms: _41  and  _42
REMARK   19  A    between atoms: _45  and  _47
REMARK   20  A    between atoms: _47  and  _48
REMARK   21  A    between atoms: _47  and  _50
REMARK   22  A    between atoms: _50  and  _51
REMARK   23  A    between atoms: _54  and  _56
REMARK   24  A    between atoms: _56  and  _57
REMARK   25  A    between atoms: _59  and  _61
REMARK   26  A    between atoms: _61  and  _62
REMARK   27  A    between atoms: _65  and  _67
REMARK   28  A    between atoms: _67  and  _68
REMARK   29  A    between atoms: _67  and  _70
REMARK   30  A    between atoms: _70  and  _71
REMARK   31  A    between atoms: _74  and  _76
REMARK   32  A    between atoms: _76  and  _77
REMARK   33  A    between atoms: _76  and  _79
REMARK   34  A    between atoms: _79  and  _80
REMARK   35  A    between atoms: _83  and  _85
REMARK   36  A    between atoms: _85  and  _86
REMARK   37  A    between atoms: _85  and  _88
REMARK   38  A    between atoms: _88  and  _89
REMARK   39  A    between atoms: _92  and  _94
REMARK   40  A    between atoms: _94  and  _95
REMARK   41  A    between atoms: _94  and  _97
REMARK   42  A    between atoms: _100  and  _102
REMARK   43  A    between atoms: _102  and  _103
REMARK   44  A    between atoms: _102  and  _105
REMARK   45  A    between atoms: _105  and  _106
REMARK   46  A    between atoms: _106  and  _107
REMARK   47  A    between atoms: _107  and  _108
REMARK   48  A    between atoms: _108  and  _109
REMARK   49  A    between atoms: _113  and  _115
REMARK   50  A    between atoms: _115  and  _116
REMARK   51  A    between atoms: _115  and  _118
REMARK   52  A    between atoms: _118  and  _119
REMARK   53  A    between atoms: _119  and  _120
REMARK   54  A    between atoms: _122  and  _124
REMARK   55  A    between atoms: _124  and  _125
REMARK   56  A    between atoms: _124  and  _127
REMARK   57  A    between atoms: _127  and  _128
REMARK   58  A    between atoms: _131  and  _133
REMARK   59  A    between atoms: _133  and  _134
REMARK   60  A    between atoms: _136  and  _138
REMARK   61  A    between atoms: _138  and  _139
REMARK   62  A    between atoms: _141  and  _143
REMARK   63  A    between atoms: _143  and  _144
REMARK   64  A    between atoms: _143  and  _146
REMARK   65  A    between atoms: _146  and  _147
REMARK   66  A    between atoms: _150  and  _152
REMARK   67  A    between atoms: _152  and  _153
REMARK   68  A    between atoms: _155  and  _157
REMARK   69  A    between atoms: _157  and  _158
REMARK   70  A    between atoms: _160  and  _162
REMARK   71  A    between atoms: _162  and  _163
REMARK   72  A    between atoms: _162  and  _165
REMARK   73  A    between atoms: _165  and  _166
REMARK   74  A    between atoms: _172  and  _174
REMARK   75  A    between atoms: _174  and  _175
REMARK   76  A    between atoms: _174  and  _177
REMARK   77  A    between atoms: _177  and  _178
REMARK   78  A    between atoms: _181  and  _183
REMARK   79  A    between atoms: _183  and  _184
REMARK   80  A    between atoms: _183  and  _186
REMARK   81  A    between atoms: _189  and  _191
REMARK   82  A    between atoms: _191  and  _192
REMARK   83  A    between atoms: _191  and  _194
REMARK   84  A    between atoms: _194  and  _195
REMARK   85  A    between atoms: _199  and  _200
REMARK   86  A    between atoms: _205  and  _207
REMARK   87  A    between atoms: _207  and  _208
REMARK   88  A    between atoms: _207  and  _210
REMARK   89  A    between atoms: _210  and  _211
REMARK   90  A    between atoms: _215  and  _216
REMARK   91  A    between atoms: _221  and  _223
REMARK   92  A    between atoms: _223  and  _224
REMARK   93  A    between atoms: _223  and  _226
REMARK   94  A    between atoms: _229  and  _231
REMARK   95  A    between atoms: _231  and  _232
REMARK   96  A    between atoms: _231  and  _234
REMARK   97  A    between atoms: _234  and  _235
REMARK   98  A    between atoms: _240  and  _242
REMARK   99  A    between atoms: _242  and  _243
REMARK  100  A    between atoms: _242  and  _245
REMARK  101  A    between atoms: _245  and  _246
REMARK  102  A    between atoms: _249  and  _251
REMARK  103  A    between atoms: _251  and  _252
REMARK  104  A    between atoms: _251  and  _254
REMARK  105  A    between atoms: _254  and  _255
REMARK  106  A    between atoms: _258  and  _260
REMARK  107  A    between atoms: _260  and  _261
REMARK  108  A    between atoms: _263  and  _265
REMARK  109  A    between atoms: _265  and  _266
REMARK  110  A    between atoms: _265  and  _268
REMARK  111  A    between atoms: _268  and  _269
REMARK  112  A    between atoms: _269  and  _270
REMARK  113  A    between atoms: _270  and  _271
REMARK  114  A    between atoms: _280  and  _282
REMARK  115  A    between atoms: _282  and  _283
REMARK  116  A    between atoms: _282  and  _285
REMARK  117  A    between atoms: _285  and  _286
REMARK  118  A    between atoms: _291  and  _293
REMARK  119  A    between atoms: _293  and  _294
REMARK  120  A    between atoms: _293  and  _296
REMARK  121  A    between atoms: _296  and  _297
REMARK  122  A    between atoms: _297  and  _298
REMARK  123  A    between atoms: _298  and  _299
REMARK  124  A    between atoms: _308  and  _310
REMARK  125  A    between atoms: _310  and  _311
REMARK  126  A    between atoms: _310  and  _313
REMARK  127  A    between atoms: _313  and  _314
REMARK  128  A    between atoms: _317  and  _319
REMARK  129  A    between atoms: _319  and  _320
REMARK  130  A    between atoms: _319  and  _322
REMARK  131  A    between atoms: _322  and  _323
REMARK  132  A    between atoms: _326  and  _328
REMARK  133  A    between atoms: _328  and  _329
REMARK  134  A    between atoms: _328  and  _331
REMARK  135  A    between atoms: _331  and  _332
REMARK  136  A    between atoms: _335  and  _337
REMARK  137  A    between atoms: _337  and  _338
REMARK  138  A    between atoms: _337  and  _340
REMARK  139  A    between atoms: _340  and  _341
REMARK  140  A    between atoms: _344  and  _346
REMARK  141  A    between atoms: _346  and  _347
REMARK  142  A    between atoms: _349  and  _351
REMARK  143  A    between atoms: _351  and  _352
REMARK  144  A    between atoms: _355  and  _357
REMARK  145  A    between atoms: _357  and  _358
REMARK  146  A    between atoms: _357  and  _360
REMARK  147  A    between atoms: _360  and  _361
REMARK  148  A    between atoms: _364  and  _366
REMARK  149  A    between atoms: _366  and  _367
REMARK  150  A    between atoms: _366  and  _369
REMARK  151  A    between atoms: _369  and  _370
REMARK  152  A    between atoms: _373  and  _375
REMARK  153  A    between atoms: _375  and  _376
REMARK  154  A    between atoms: _375  and  _378
REMARK  155  A    between atoms: _378  and  _379
REMARK  156  A    between atoms: _382  and  _384
REMARK  157  A    between atoms: _384  and  _385
REMARK  158  A    between atoms: _384  and  _387
REMARK  159  A    between atoms: _390  and  _392
REMARK  160  A    between atoms: _392  and  _393
REMARK  161  A    between atoms: _392  and  _395
REMARK  162  A    between atoms: _395  and  _396
REMARK  163  A    between atoms: _396  and  _397
REMARK  164  A    between atoms: _397  and  _398
REMARK  165  A    between atoms: _398  and  _399
REMARK  166  A    between atoms: _403  and  _405
REMARK  167  A    between atoms: _405  and  _406
REMARK  168  A    between atoms: _405  and  _408
REMARK  169  A    between atoms: _408  and  _409
REMARK  170  A    between atoms: _409  and  _410
REMARK  171  A    between atoms: _412  and  _414
REMARK  172  A    between atoms: _414  and  _415
REMARK  173  A    between atoms: _414  and  _417
REMARK  174  A    between atoms: _417  and  _418
REMARK  175  A    between atoms: _421  and  _423
REMARK  176  A    between atoms: _423  and  _424
REMARK  177  A    between atoms: _426  and  _428
REMARK  178  A    between atoms: _428  and  _429
REMARK  179  A    between atoms: _431  and  _433
REMARK  180  A    between atoms: _433  and  _434
REMARK  181  A    between atoms: _433  and  _436
REMARK  182  A    between atoms: _436  and  _437
REMARK  183  A    between atoms: _440  and  _442
REMARK  184  A    between atoms: _442  and  _443
REMARK  185  A    between atoms: _445  and  _447
REMARK  186  A    between atoms: _447  and  _448
REMARK  187  A    between atoms: _450  and  _452
REMARK  188  A    between atoms: _452  and  _453
REMARK  189  A    between atoms: _452  and  _455
REMARK  190  A    between atoms: _455  and  _456
REMARK  191  A    between atoms: _462  and  _464
REMARK  192  A    between atoms: _464  and  _465
REMARK  193  A    between atoms: _464  and  _467
REMARK  194  A    between atoms: _467  and  _468
REMARK  195  A    between atoms: _471  and  _473
REMARK  196  A    between atoms: _473  and  _474
REMARK  197  A    between atoms: _473  and  _476
REMARK  198  A    between atoms: _476  and  _477
REMARK  199  A    between atoms: _480  and  _482
REMARK  200  A    between atoms: _482  and  _483
REMARK  201  A    between atoms: _482  and  _485
REMARK  202  A    between atoms: _485  and  _486
REMARK  203  A    between atoms: _490  and  _491
REMARK  204  A    between atoms: _496  and  _498
REMARK  205  A    between atoms: _498  and  _499
REMARK  206  A    between atoms: _498  and  _501
REMARK  207  A    between atoms: _504  and  _506
REMARK  208  A    between atoms: _506  and  _507
REMARK  209  A    between atoms: _506  and  _509
REMARK  210  A    between atoms: _509  and  _510
REMARK  211  A    between atoms: _515  and  _517
REMARK  212  A    between atoms: _517  and  _518
REMARK  213  A    between atoms: _517  and  _520
REMARK  214  A    between atoms: _520  and  _521
REMARK  215  A    between atoms: _524  and  _526
REMARK  216  A    between atoms: _526  and  _527
REMARK  217  A    between atoms: _529  and  _531
REMARK  218  A    between atoms: _531  and  _532
REMARK  219  A    between atoms: _531  and  _534
REMARK  220  A    between atoms: _534  and  _535
REMARK  221  A    between atoms: _535  and  _536
REMARK  222  A    between atoms: _536  and  _537
REMARK  223  A    between atoms: _546  and  _548
REMARK  224  A    between atoms: _548  and  _549
REMARK  225  A    between atoms: _548  and  _551
REMARK  226  A    between atoms: _551  and  _552
REMARK                            x       y       z     vdW  Elec       q    Type
REMARK                         _______ _______ _______ _____ _____    ______ ____
ROOT
ATOM      1  CA  LEU A   1      21.604  30.759   6.657  0.00  0.00    +0.133 C 
ENDROOT
BRANCH   1   2
ATOM      2  N   LEU A   1      20.834  31.943   6.976  0.00  0.00    -0.239 NA
ATOM      3  H   LEU A   1      20.175  31.914   7.780  0.00  0.00    +0.142 HD
ENDBRANCH   1   2
BRANCH   1   4
ATOM      4  C   LEU A   1      20.774  29.859   5.769  0.00  0.00    +0.224 C 
ATOM      5  O   LEU A   1      19.593  29.634   6.106  0.00  0.00    -0.287 OA
ENDBRANCH   1   4
BRANCH   1   6
ATOM      6  CB  LEU A   1      21.992  30.024   7.937  0.00  0.00    +0.025 C 
BRANCH   6   7
ATOM      7  CG  LEU A   1      22.715  30.913   8.968  0.00  0.00    +0.002 C 
ATOM      8  CD2 LEU A   1      23.097  30.017  10.145  0.00  0.00    +0.000 C 
ATOM      9  CD1 LEU A   1      23.913  31.605   8.344  0.00  0.00    +0.000 C 
ENDBRANCH   6   7
ENDBRANCH   1   6
TORSDOF 4
REMARK  Name = ../refined-set-2016/5bry/5bry_pocket.pdb
REMARK  226 active torsions:
REMARK  status: ('A' for Active; 'I' for Inactive)
REMARK    1  A    between atoms: _1  and  _3
REMARK    2  A    between atoms: _3  and  _4
REMARK    3  A    between atoms: _3  and  _6
REMARK    4  A    between atoms: _6  and  _7
REMARK    5  A    between atoms: _7  and  _8
REMARK    6  A    between atoms: _8  and  _9
REMARK    7  A    between atoms: _18  and  _20
REMARK    8  A    between atoms: _20  and  _21
REMARK    9  A    between atoms: _20  and  _23
REMARK   10  A    between atoms: _23  and  _24
REMARK   11  A    between atoms: _27  and  _29
REMARK   12  A    between atoms: _29  and  _30
REMARK   13  A    between atoms: _29  and  _32
REMARK   14  A    between atoms: _32  and  _33
REMARK   15  A    between atoms: _36  and  _38
REMARK   16  A    between atoms: _38  and  _39
REMARK   17  A    between atoms: _38  and  _41
REMARK   18  A    between atoms: _41  and  _42
REMARK   19  A    between atoms: _45  and  _47
REMARK   20  A    between atoms: _47  and  _48
REMARK   21  A    between atoms: _47  and  _50
REMARK   22  A    between atoms: _50  and  _51
REMARK   23  A    between atoms: _54  and  _56
REMARK   24  A    between atoms: _56  and  _57
REMARK   25  A    between atoms: _59  and  _61
REMARK   26  A    between atoms: _61  and  _62
REMARK   27  A    between atoms: _65  and  _67
REMARK   28  A    between atoms: _67  and  _68
REMARK   29  A    between atoms: _67  and  _70
REMARK   30  A    between atoms: _70  and  _71
REMARK   31  A    between atoms: _74  and  _76
REMARK   32  A    between atoms: _76  and  _77
REMARK   33  A    between atoms: _76  and  _79
REMARK   34  A    between atoms: _79  and  _80
REMARK   35  A    between atoms: _83  and  _85
REMARK   36  A    between atoms: _85  and  _86
REMARK   37  A    between atoms: _85  and  _88
REMARK   38  A    between atoms: _88  and  _89
REMARK   39  A    between atoms: _92  and  _94
REMARK   40  A    between atoms: _94  and  _95
REMARK   41  A    between atoms: _94  and  _97
REMARK   42  A    between atoms: _100  and  _102
REMARK   43  A    between atoms: _102  and  _103
REMARK   44  A    between atoms: _102  and  _105
REMARK   45  A    between atoms: _105  and  _106
REMARK   46  A    between atoms: _106  and  _107
REMARK   47  A    between atoms: _107  and  _108
REMARK   48  A    between atoms: _108  and  _109
REMARK   49  A    between atoms: _113  and  _115
REMARK   50  A    between atoms: _115  and  _116
REMARK   51  A    between atoms: _115  and  _118
REMARK   52  A    between atoms: _118  and  _119
REMARK   53  A    between atoms: _119  and  _120
REMARK   54  A    between atoms: _122  and  _124
REMARK   55  A    between atoms: _124  and  _125
REMARK   56  A    between atoms: _124  and  _127
REMARK   57  A    between atoms: _127  and  _128
REMARK   58  A    between atoms: _131  and  _133
REMARK   59  A    between atoms: _133  and  _134
REMARK   60  A    between atoms: _136  and  _138
REMARK   61  A    between atoms: _138  and  _139
REMARK   62  A    between atoms: _141  and  _143
REMARK   63  A    between atoms: _143  and  _144
REMARK   64  A    between atoms: _143  and  _146
REMARK   65  A    between atoms: _146  and  _147
REMARK   66  A    between atoms: _150  and  _152
REMARK   67  A    between atoms: _152  and  _153
REMARK   68  A    between atoms: _155  and  _157
REMARK   69  A    between atoms: _157  and  _158
REMARK   70  A    between atoms: _160  and  _162
REMARK   71  A    between atoms: _162  and  _163
REMARK   72  A    between atoms: _162  and  _165
REMARK   73  A    between atoms: _165  and  _166
REMARK   74  A    between atoms: _172  and  _174
REMARK   75  A    between atoms: _174  and  _175
REMARK   76  A    between atoms: _174  and  _177
REMARK   77  A    between atoms: _177  and  _178
REMARK   78  A    between atoms: _181  and  _183
REMARK   79  A    between atoms: _183  and  _184
REMARK   80  A    between atoms: _183  and  _186
REMARK   81  A    between atoms: _189  and  _191
REMARK   82  A    between atoms: _191  and  _192
REMARK   83  A    between atoms: _191  and  _194
REMARK   84  A    between atoms: _194  and  _195
REMARK   85  A    between atoms: _199  and  _200
REMARK   86  A    between atoms: _205  and  _207
REMARK   87  A    between atoms: _207  and  _208
REMARK   88  A    between atoms: _207  and  _210
REMARK   89  A    between atoms: _210  and  _211
REMARK   90  A    between atoms: _215  and  _216
REMARK   91  A    between atoms: _221  and  _223
REMARK   92  A    between atoms: _223  and  _224
REMARK   93  A    between atoms: _223  and  _226
REMARK   94  A    between atoms: _229  and  _231
REMARK   95  A    between atoms: _231  and  _232
REMARK   96  A    between atoms: _231  and  _234
REMARK   97  A    between atoms: _234  and  _235
REMARK   98  A    between atoms: _240  and  _242
REMARK   99  A    between atoms: _242  and  _243
REMARK  100  A    between atoms: _242  and  _245
REMARK  101  A    between atoms: _245  and  _246
REMARK  102  A    between atoms: _249  and  _251
REMARK  103  A    between atoms: _251  and  _252
REMARK  104  A    between atoms: _251  and  _254
REMARK  105  A    between atoms: _254  and  _255
REMARK  106  A    between atoms: _258  and  _260
REMARK  107  A    between atoms: _260  and  _261
REMARK  108  A    between atoms: _263  and  _265
REMARK  109  A    between atoms: _265  and  _266
REMARK  110  A    between atoms: _265  and  _268
REMARK  111  A    between atoms: _268  and  _269
REMARK  112  A    between atoms: _269  and  _270
REMARK  113  A    between atoms: _270  and  _271
REMARK  114  A    between atoms: _280  and  _282
REMARK  115  A    between atoms: _282  and  _283
REMARK  116  A    between atoms: _282  and  _285
REMARK  117  A    between atoms: _285  and  _286
REMARK  118  A    between atoms: _291  and  _293
REMARK  119  A    between atoms: _293  and  _294
REMARK  120  A    between atoms: _293  and  _296
REMARK  121  A    between atoms: _296  and  _297
REMARK  122  A    between atoms: _297  and  _298
REMARK  123  A    between atoms: _298  and  _299
REMARK  124  A    between atoms: _308  and  _310
REMARK  125  A    between atoms: _310  and  _311
REMARK  126  A    between atoms: _310  and  _313
REMARK  127  A    between atoms: _313  and  _314
REMARK  128  A    between atoms: _317  and  _319
REMARK  129  A    between atoms: _319  and  _320
REMARK  130  A    between atoms: _319  and  _322
REMARK  131  A    between atoms: _322  and  _323
REMARK  132  A    between atoms: _326  and  _328
REMARK  133  A    between atoms: _328  and  _329
REMARK  134  A    between atoms: _328  and  _331
REMARK  135  A    between atoms: _331  and  _332
REMARK  136  A    between atoms: _335  and  _337
REMARK  137  A    between atoms: _337  and  _338
REMARK  138  A    between atoms: _337  and  _340
REMARK  139  A    between atoms: _340  and  _341
REMARK  140  A    between atoms: _344  and  _346
REMARK  141  A    between atoms: _346  and  _347
REMARK  142  A    between atoms: _349  and  _351
REMARK  143  A    between atoms: _351  and  _352
REMARK  144  A    between atoms: _355  and  _357
REMARK  145  A    between atoms: _357  and  _358
REMARK  146  A    between atoms: _357  and  _360
REMARK  147  A    between atoms: _360  and  _361
REMARK  148  A    between atoms: _364  and  _366
REMARK  149  A    between atoms: _366  and  _367
REMARK  150  A    between atoms: _366  and  _369
REMARK  151  A    between atoms: _369  and  _370
REMARK  152  A    between atoms: _373  and  _375
REMARK  153  A    between atoms: _375  and  _376
REMARK  154  A    between atoms: _375  and  _378
REMARK  155  A    between atoms: _378  and  _379
REMARK  156  A    between atoms: _382  and  _384
REMARK  157  A    between atoms: _384  and  _385
REMARK  158  A    between atoms: _384  and  _387
REMARK  159  A    between atoms: _390  and  _392
REMARK  160  A    between atoms: _392  and  _393
REMARK  161  A    between atoms: _392  and  _395
REMARK  162  A    between atoms: _395  and  _396
REMARK  163  A    between atoms: _396  and  _397
REMARK  164  A    between atoms: _397  and  _398
REMARK  165  A    between atoms: _398  and  _399
REMARK  166  A    between atoms: _403  and  _405
REMARK  167  A    between atoms: _405  and  _406
REMARK  168  A    between atoms: _405  and  _408
REMARK  169  A    between atoms: _408  and  _409
REMARK  170  A    between atoms: _409  and  _410
REMARK  171  A    between atoms: _412  and  _414
REMARK  172  A    between atoms: _414  and  _415
REMARK  173  A    between atoms: _414  and  _417
REMARK  174  A    between atoms: _417  and  _418
REMARK  175  A    between atoms: _421  and  _423
REMARK  176  A    between atoms: _423  and  _424
REMARK  177  A    between atoms: _426  and  _428
REMARK  178  A    between atoms: _428  and  _429
REMARK  179  A    between atoms: _431  and  _433
REMARK  180  A    between atoms: _433  and  _434
REMARK  181  A    between atoms: _433  and  _436
REMARK  182  A    between atoms: _436  and  _437
REMARK  183  A    between atoms: _440  and  _442
REMARK  184  A    between atoms: _442  and  _443
REMARK  185  A    between atoms: _445  and  _447
REMARK  186  A    between atoms: _447  and  _448
REMARK  187  A    between atoms: _450  and  _452
REMARK  188  A    between atoms: _452  and  _453
REMARK  189  A    between atoms: _452  and  _455
REMARK  190  A    between atoms: _455  and  _456
REMARK  191  A    between atoms: _462  and  _464
REMARK  192  A    between atoms: _464  and  _465
REMARK  193  A    between atoms: _464  and  _467
REMARK  194  A    between atoms: _467  and  _468
REMARK  195  A    between atoms: _471  and  _473
REMARK  196  A    between atoms: _473  and  _474
REMARK  197  A    between atoms: _473  and  _476
REMARK  198  A    between atoms: _476  and  _477
REMARK  199  A    between atoms: _480  and  _482
REMARK  200  A    between atoms: _482  and  _483
REMARK  201  A    between atoms: _482  and  _485
REMARK  202  A    between atoms: _485  and  _486
REMARK  203  A    between atoms: _490  and  _491
REMARK  204  A    between atoms: _496  and  _498
REMARK  205  A    between atoms: _498  and  _499
REMARK  206  A    between atoms: _498  and  _501
REMARK  207  A    between atoms: _504  and  _506
REMARK  208  A    between atoms: _506  and  _507
REMARK  209  A    between atoms: _506  and  _509
REMARK  210  A    between atoms: _509  and  _510
REMARK  211  A    between atoms: _515  and  _517
REMARK  212  A    between atoms: _517  and  _518
REMARK  213  A    between atoms: _517  and  _520
REMARK  214  A    between atoms: _520  and  _521
REMARK  215  A    between atoms: _524  and  _526
REMARK  216  A    between atoms: _526  and  _527
REMARK  217  A    between atoms: _529  and  _531
REMARK  218  A    between atoms: _531  and  _532
REMARK  219  A    between atoms: _531  and  _534
REMARK  220  A    between atoms: _534  and  _535
REMARK  221  A    between atoms: _535  and  _536
REMARK  222  A    between atoms: _536  and  _537
REMARK  223  A    between atoms: _546  and  _548
REMARK  224  A    between atoms: _548  and  _549
REMARK  225  A    between atoms: _548  and  _551
REMARK  226  A    between atoms: _551  and  _552
REMARK                            x       y       z     vdW  Elec       q    Type
REMARK                         _______ _______ _______ _____ _____    ______ ____
ROOT
ATOM      1  CA  ILE A   6      13.392  28.476  11.233  0.00  0.00    +0.149 C 
ENDROOT
BRANCH   1   2
ATOM      2  C   ILE A   6      13.702  29.954  11.260  0.00  0.00    +0.241 C 
ATOM      3  N   ILE A   7      12.850  30.740  11.919  0.00  0.00    -0.297 N 
ATOM      4  H   ILE A   7      11.950  30.345  12.257  0.00  0.00    +0.150 HD
ATOM      5  O   ILE A   6      14.729  30.398  10.699  0.00  0.00    -0.273 OA
BRANCH   3   6
ATOM      6  CA  ILE A   7      13.160  32.162  12.178  0.00  0.00    +0.149 C 
BRANCH   6   7
ATOM      7  C   ILE A   7      13.759  32.230  13.554  0.00  0.00    +0.241 C 
ATOM      8  O   ILE A   7      13.100  31.901  14.551  0.00  0.00    -0.273 OA
ATOM      9  N   GLY A   8      15.035  32.564  13.650  0.00  0.00    -0.295 N 
ATOM     10  H   GLY A   8      15.565  32.820  12.793  0.00  0.00    +0.150 HD
BRANCH   9  11
ATOM     11  CA  GLY A   8      15.708  32.577  14.944  0.00  0.00    +0.176 C 
BRANCH  11  12
ATOM     12  C   GLY A   8      15.829  33.949  15.539  0.00  0.00    +0.243 C 
ATOM     13  N   ARG A   9      16.545  34.030  16.659  0.00  0.00    -0.297 N 
ATOM     14  H   ARG A   9      17.124  33.225  16.973  0.00  0.00    +0.150 HD
ATOM     15  O   GLY A   8      15.274  34.912  14.983  0.00  0.00    -0.273 OA
BRANCH  13  16
ATOM     16  CA  ARG A   9      16.507  35.250  17.433  0.00  0.00    +0.149 C 
BRANCH  16  17
ATOM     17  C   ARG A   9      17.020  36.459  16.654  0.00  0.00    +0.241 C 
ATOM     18  O   ARG A   9      16.561  37.576  16.909  0.00  0.00    -0.273 OA
ATOM     19  N   ASN A  10      17.978  36.287  15.749  0.00  0.00    -0.298 N 
ATOM     20  H   ASN A  10      18.335  35.332  15.542  0.00  0.00    +0.150 HD
BRANCH  19  21
ATOM     21  CA  ASN A  10      18.529  37.446  15.045  0.00  0.00    +0.146 C 
BRANCH  21  22
ATOM     22  C   ASN A  10      17.454  38.239  14.304  0.00  0.00    +0.227 C 
ATOM     23  O   ASN A  10      17.660  39.437  14.085  0.00  0.00    -0.286 OA
ENDBRANCH  21  22
BRANCH  21  24
ATOM     24  CB  ASN A  10      19.632  37.018  14.084  0.00  0.00    +0.112 C 
BRANCH  24  25
ATOM     25  CG  ASN A  10      19.128  36.290  12.853  0.00  0.00    +0.222 C 
ATOM     26  OD1 ASN A  10      18.398  35.297  12.932  0.00  0.00    -0.275 OA
ATOM     27  ND2 ASN A  10      19.553  36.823  11.682  0.00  0.00    -0.329 N 
ATOM     28 HD21 ASN A  10      20.168  37.662  11.685  0.00  0.00    +0.145 HD
ATOM     29 HD22 ASN A  10      19.265  36.393  10.780  0.00  0.00    +0.145 HD
ENDBRANCH  24  25
ENDBRANCH  21  24
ENDBRANCH  19  21
ENDBRANCH  16  17
BRANCH  16  30
ATOM     30  CB  ARG A   9      17.352  35.053  18.702  0.00  0.00    +0.033 C 
BRANCH  30  31
ATOM     31  CG  ARG A   9      16.707  34.062  19.685  0.00  0.00    +0.045 C 
BRANCH  31  32
ATOM     32  CD  ARG A   9      17.419  34.016  21.053  0.00  0.00    +0.174 C 
BRANCH  32  33
ATOM     33  NE  ARG A   9      18.804  33.579  20.890  0.00  0.00    -0.265 N 
ATOM     34  CZ  ARG A   9      19.898  34.352  20.847  0.00  0.00    +0.342 C 
ATOM     35  NH2 ARG A   9      19.792  35.686  21.012  0.00  0.00    -0.292 N 
ATOM     36 HH21 ARG A   9      18.860  36.118  21.173  0.00  0.00    +0.255 HD
ATOM     37 HH22 ARG A   9      20.643  36.283  20.978  0.00  0.00    +0.255 HD
ATOM     38  NH1 ARG A   9      21.117  33.841  20.668  0.00  0.00    -0.292 N 
ATOM     39 HH11 ARG A   9      21.945  34.469  20.640  0.00  0.00    +0.255 HD
ATOM     40 HH12 ARG A   9      21.239  32.814  20.557  0.00  0.00    +0.255 HD
ATOM     41  HE  ARG A   9      18.958  32.555  20.797  0.00  0.00    +0.259 HD
ENDBRANCH  32  33
ENDBRANCH  31  32
ENDBRANCH  30  31
ENDBRANCH  16  30
ENDBRANCH  13  16
ENDBRANCH  11  12
ENDBRANCH   9  11
ENDBRANCH   6   7
BRANCH   6  42
ATOM     42  CB  ILE A   7      11.903  33.046  12.127  0.00  0.00    +0.027 C 
ATOM     43  CG2 ILE A   7      12.254  34.498  12.440  0.00  0.00    +0.002 C 
BRANCH  42  44
ATOM     44  CG1 ILE A   7      11.175  32.939  10.794  0.00  0.00    +0.002 C 
ATOM     45  CD1 ILE A   7      12.107  33.194   9.574  0.00  0.00    +0.000 C 
ENDBRANCH  42  44
ENDBRANCH   6  42
ENDBRANCH   3   6
ENDBRANCH   1   2
BRANCH   1  48
ATOM     46  C   ASN A   5      12.274  27.330   9.371  0.00  0.00    +0.241 C 
ATOM     47  O   ASN A   5      11.190  27.217   9.971  0.00  0.00    -0.273 OA
ATOM     48  N   ILE A   6      13.316  27.949   9.882  0.00  0.00    -0.297 N 
ATOM     49  H   ILE A   6      14.149  28.070   9.272  0.00  0.00    +0.150 HD
BRANCH  46  50
ATOM     50  CA  ASN A   5      12.430  26.771   7.944  0.00  0.00    +0.158 C 
BRANCH  50  53
ATOM     51  C   VAL A   4      12.737  24.441   8.507  0.00  0.00    +0.241 C 
ATOM     52  O   VAL A   4      13.879  24.683   8.897  0.00  0.00    -0.273 OA
ATOM     53  N   ASN A   5      11.965  25.369   7.956  0.00  0.00    -0.297 N 
ATOM     54  H   ASN A   5      11.047  25.113   7.539  0.00  0.00    +0.150 HD
BRANCH  51  55
ATOM     55  CA  VAL A   4      12.188  23.031   8.575  0.00  0.00    +0.149 C 
BRANCH  55  57
ATOM     56  C   PRO A   3      13.130  20.879   7.930  0.00  0.00    +0.241 C 
ATOM     57  N   VAL A   4      13.292  22.069   8.471  0.00  0.00    -0.297 N 
ATOM     58  H   VAL A   4      14.229  22.335   8.835  0.00  0.00    +0.150 HD
ATOM     59  O   PRO A   3      12.050  20.469   7.490  0.00  0.00    -0.273 OA
BRANCH  56  65
ATOM     60  C   THR A   2      16.117  21.416   7.219  0.00  0.00    +0.246 C 
ATOM     61  N   PRO A   3      15.584  20.596   8.121  0.00  0.00    -0.272 N 
ATOM     62  CD  PRO A   3      16.126  20.201   9.433  0.00  0.00    +0.094 C 
ATOM     63  CG  PRO A   3      15.041  19.348  10.011  0.00  0.00    +0.024 C 
ATOM     64  CB  PRO A   3      14.154  18.878   8.932  0.00  0.00    +0.031 C 
ATOM     65  CA  PRO A   3      14.320  19.919   7.827  0.00  0.00    +0.152 C 
ATOM     66  O   THR A   2      15.591  21.647   6.116  0.00  0.00    -0.273 OA
BRANCH  60  67
ATOM     67  CA  THR A   2      17.430  22.117   7.531  0.00  0.00    +0.176 C 
BRANCH  67  70
ATOM     68  C   PRO A   1      18.892  21.168   5.825  0.00  0.00    +0.239 C 
ATOM     69  O   PRO A   1      18.963  20.144   6.497  0.00  0.00    -0.274 OA
ATOM     70  N   THR A   2      18.268  22.208   6.328  0.00  0.00    -0.295 N 
ATOM     71  H   THR A   2      18.371  23.130   5.858  0.00  0.00    +0.150 HD
BRANCH  68  73
ATOM     72  N   PRO A   1      20.402  22.439   4.332  0.00  0.00    -0.210 NA
ATOM     73  CA  PRO A   1      19.490  21.292   4.435  0.00  0.00    +0.149 C 
ATOM     74  CB  PRO A   1      20.371  20.105   4.079  0.00  0.00    +0.028 C 
ATOM     75  CG  PRO A   1      21.757  20.527   4.493  0.00  0.00    +0.021 C 
ATOM     76  CD  PRO A   1      21.820  22.028   4.307  0.00  0.00    +0.089 C 
ENDBRANCH  68  73
ENDBRANCH  67  70
BRANCH  67  77
ATOM     77  CB  THR A   2      17.162  23.541   8.082  0.00  0.00    +0.137 C 
ATOM     78  CG2 THR A   2      16.472  24.508   7.123  0.00  0.00    +0.034 C 
BRANCH  77  79
ATOM     79  OG1 THR A   2      16.304  23.384   9.208  0.00  0.00    -0.382 OA
ATOM     80  HG1 THR A   2      15.461  22.951   8.921  0.00  0.00    +0.210 HD
ENDBRANCH  77  79
ENDBRANCH  67  77
ENDBRANCH  60  67
ENDBRANCH  56  65
ENDBRANCH  55  57
BRANCH  55  81
ATOM     81  CB  VAL A   4      11.468  22.810   9.910  0.00  0.00    +0.027 C 
ATOM     82  CG2 VAL A   4      12.465  23.094  11.020  0.00  0.00    +0.002 C 
ATOM     83  CG1 VAL A   4      10.228  23.662  10.059  0.00  0.00    +0.002 C 
ENDBRANCH  55  81
ENDBRANCH  51  55
ENDBRANCH  50  53
BRANCH  50  84
ATOM     84  CB  ASN A   5      11.622  27.611   6.969  0.00  0.00    +0.114 C 
BRANCH  84  85
ATOM     85  CG  ASN A   5      11.689  27.147   5.535  0.00  0.00    +0.222 C 
ATOM     86  OD1 ASN A   5      12.803  26.846   5.108  0.00  0.00    -0.275 OA
ATOM     87  ND2 ASN A   5      10.548  27.127   4.862  0.00  0.00    -0.329 N 
ATOM     88 HD21 ASN A   5       9.662  27.405   5.331  0.00  0.00    +0.145 HD
ATOM     89 HD22 ASN A   5      10.538  26.834   3.864  0.00  0.00    +0.145 HD
ENDBRANCH  84  85
ENDBRANCH  50  84
ENDBRANCH  46  50
ENDBRANCH   1  48
BRANCH   1  90
ATOM     90  CB  ILE A   6      14.531  27.736  11.953  0.00  0.00    +0.027 C 
ATOM     91  CG2 ILE A   6      14.844  28.409  13.278  0.00  0.00    +0.002 C 
BRANCH  90  92
ATOM     92  CG1 ILE A   6      14.240  26.244  12.135  0.00  0.00    +0.002 C 
ATOM     93  CD1 ILE A   6      15.504  25.435  12.261  0.00  0.00    +0.000 C 
ENDBRANCH  90  92
ENDBRANCH   1  90
TORSDOF 33
REMARK  Name = ../refined-set-2016/5bry/5bry_pocket.pdb
REMARK  226 active torsions:
REMARK  status: ('A' for Active; 'I' for Inactive)
REMARK    1  A    between atoms: _1  and  _3
REMARK    2  A    between atoms: _3  and  _4
REMARK    3  A    between atoms: _3  and  _6
REMARK    4  A    between atoms: _6  and  _7
REMARK    5  A    between atoms: _7  and  _8
REMARK    6  A    between atoms: _8  and  _9
REMARK    7  A    between atoms: _18  and  _20
REMARK    8  A    between atoms: _20  and  _21
REMARK    9  A    between atoms: _20  and  _23
REMARK   10  A    between atoms: _23  and  _24
REMARK   11  A    between atoms: _27  and  _29
REMARK   12  A    between atoms: _29  and  _30
REMARK   13  A    between atoms: _29  and  _32
REMARK   14  A    between atoms: _32  and  _33
REMARK   15  A    between atoms: _36  and  _38
REMARK   16  A    between atoms: _38  and  _39
REMARK   17  A    between atoms: _38  and  _41
REMARK   18  A    between atoms: _41  and  _42
REMARK   19  A    between atoms: _45  and  _47
REMARK   20  A    between atoms: _47  and  _48
REMARK   21  A    between atoms: _47  and  _50
REMARK   22  A    between atoms: _50  and  _51
REMARK   23  A    between atoms: _54  and  _56
REMARK   24  A    between atoms: _56  and  _57
REMARK   25  A    between atoms: _59  and  _61
REMARK   26  A    between atoms: _61  and  _62
REMARK   27  A    between atoms: _65  and  _67
REMARK   28  A    between atoms: _67  and  _68
REMARK   29  A    between atoms: _67  and  _70
REMARK   30  A    between atoms: _70  and  _71
REMARK   31  A    between atoms: _74  and  _76
REMARK   32  A    between atoms: _76  and  _77
REMARK   33  A    between atoms: _76  and  _79
REMARK   34  A    between atoms: _79  and  _80
REMARK   35  A    between atoms: _83  and  _85
REMARK   36  A    between atoms: _85  and  _86
REMARK   37  A    between atoms: _85  and  _88
REMARK   38  A    between atoms: _88  and  _89
REMARK   39  A    between atoms: _92  and  _94
REMARK   40  A    between atoms: _94  and  _95
REMARK   41  A    between atoms: _94  and  _97
REMARK   42  A    between atoms: _100  and  _102
REMARK   43  A    between atoms: _102  and  _103
REMARK   44  A    between atoms: _102  and  _105
REMARK   45  A    between atoms: _105  and  _106
REMARK   46  A    between atoms: _106  and  _107
REMARK   47  A    between atoms: _107  and  _108
REMARK   48  A    between atoms: _108  and  _109
REMARK   49  A    between atoms: _113  and  _115
REMARK   50  A    between atoms: _115  and  _116
REMARK   51  A    between atoms: _115  and  _118
REMARK   52  A    between atoms: _118  and  _119
REMARK   53  A    between atoms: _119  and  _120
REMARK   54  A    between atoms: _122  and  _124
REMARK   55  A    between atoms: _124  and  _125
REMARK   56  A    between atoms: _124  and  _127
REMARK   57  A    between atoms: _127  and  _128
REMARK   58  A    between atoms: _131  and  _133
REMARK   59  A    between atoms: _133  and  _134
REMARK   60  A    between atoms: _136  and  _138
REMARK   61  A    between atoms: _138  and  _139
REMARK   62  A    between atoms: _141  and  _143
REMARK   63  A    between atoms: _143  and  _144
REMARK   64  A    between atoms: _143  and  _146
REMARK   65  A    between atoms: _146  and  _147
REMARK   66  A    between atoms: _150  and  _152
REMARK   67  A    between atoms: _152  and  _153
REMARK   68  A    between atoms: _155  and  _157
REMARK   69  A    between atoms: _157  and  _158
REMARK   70  A    between atoms: _160  and  _162
REMARK   71  A    between atoms: _162  and  _163
REMARK   72  A    between atoms: _162  and  _165
REMARK   73  A    between atoms: _165  and  _166
REMARK   74  A    between atoms: _172  and  _174
REMARK   75  A    between atoms: _174  and  _175
REMARK   76  A    between atoms: _174  and  _177
REMARK   77  A    between atoms: _177  and  _178
REMARK   78  A    between atoms: _181  and  _183
REMARK   79  A    between atoms: _183  and  _184
REMARK   80  A    between atoms: _183  and  _186
REMARK   81  A    between atoms: _189  and  _191
REMARK   82  A    between atoms: _191  and  _192
REMARK   83  A    between atoms: _191  and  _194
REMARK   84  A    between atoms: _194  and  _195
REMARK   85  A    between atoms: _199  and  _200
REMARK   86  A    between atoms: _205  and  _207
REMARK   87  A    between atoms: _207  and  _208
REMARK   88  A    between atoms: _207  and  _210
REMARK   89  A    between atoms: _210  and  _211
REMARK   90  A    between atoms: _215  and  _216
REMARK   91  A    between atoms: _221  and  _223
REMARK   92  A    between atoms: _223  and  _224
REMARK   93  A    between atoms: _223  and  _226
REMARK   94  A    between atoms: _229  and  _231
REMARK   95  A    between atoms: _231  and  _232
REMARK   96  A    between atoms: _231  and  _234
REMARK   97  A    between atoms: _234  and  _235
REMARK   98  A    between atoms: _240  and  _242
REMARK   99  A    between atoms: _242  and  _243
REMARK  100  A    between atoms: _242  and  _245
REMARK  101  A    between atoms: _245  and  _246
REMARK  102  A    between atoms: _249  and  _251
REMARK  103  A    between atoms: _251  and  _252
REMARK  104  A    between atoms: _251  and  _254
REMARK  105  A    between atoms: _254  and  _255
REMARK  106  A    between atoms: _258  and  _260
REMARK  107  A    between atoms: _260  and  _261
REMARK  108  A    between atoms: _263  and  _265
REMARK  109  A    between atoms: _265  and  _266
REMARK  110  A    between atoms: _265  and  _268
REMARK  111  A    between atoms: _268  and  _269
REMARK  112  A    between atoms: _269  and  _270
REMARK  113  A    between atoms: _270  and  _271
REMARK  114  A    between atoms: _280  and  _282
REMARK  115  A    between atoms: _282  and  _283
REMARK  116  A    between atoms: _282  and  _285
REMARK  117  A    between atoms: _285  and  _286
REMARK  118  A    between atoms: _291  and  _293
REMARK  119  A    between atoms: _293  and  _294
REMARK  120  A    between atoms: _293  and  _296
REMARK  121  A    between atoms: _296  and  _297
REMARK  122  A    between atoms: _297  and  _298
REMARK  123  A    between atoms: _298  and  _299
REMARK  124  A    between atoms: _308  and  _310
REMARK  125  A    between atoms: _310  and  _311
REMARK  126  A    between atoms: _310  and  _313
REMARK  127  A    between atoms: _313  and  _314
REMARK  128  A    between atoms: _317  and  _319
REMARK  129  A    between atoms: _319  and  _320
REMARK  130  A    between atoms: _319  and  _322
REMARK  131  A    between atoms: _322  and  _323
REMARK  132  A    between atoms: _326  and  _328
REMARK  133  A    between atoms: _328  and  _329
REMARK  134  A    between atoms: _328  and  _331
REMARK  135  A    between atoms: _331  and  _332
REMARK  136  A    between atoms: _335  and  _337
REMARK  137  A    between atoms: _337  and  _338
REMARK  138  A    between atoms: _337  and  _340
REMARK  139  A    between atoms: _340  and  _341
REMARK  140  A    between atoms: _344  and  _346
REMARK  141  A    between atoms: _346  and  _347
REMARK  142  A    between atoms: _349  and  _351
REMARK  143  A    between atoms: _351  and  _352
REMARK  144  A    between atoms: _355  and  _357
REMARK  145  A    between atoms: _357  and  _358
REMARK  146  A    between atoms: _357  and  _360
REMARK  147  A    between atoms: _360  and  _361
REMARK  148  A    between atoms: _364  and  _366
REMARK  149  A    between atoms: _366  and  _367
REMARK  150  A    between atoms: _366  and  _369
REMARK  151  A    between atoms: _369  and  _370
REMARK  152  A    between atoms: _373  and  _375
REMARK  153  A    between atoms: _375  and  _376
REMARK  154  A    between atoms: _375  and  _378
REMARK  155  A    between atoms: _378  and  _379
REMARK  156  A    between atoms: _382  and  _384
REMARK  157  A    between atoms: _384  and  _385
REMARK  158  A    between atoms: _384  and  _387
REMARK  159  A    between atoms: _390  and  _392
REMARK  160  A    between atoms: _392  and  _393
REMARK  161  A    between atoms: _392  and  _395
REMARK  162  A    between atoms: _395  and  _396
REMARK  163  A    between atoms: _396  and  _397
REMARK  164  A    between atoms: _397  and  _398
REMARK  165  A    between atoms: _398  and  _399
REMARK  166  A    between atoms: _403  and  _405
REMARK  167  A    between atoms: _405  and  _406
REMARK  168  A    between atoms: _405  and  _408
REMARK  169  A    between atoms: _408  and  _409
REMARK  170  A    between atoms: _409  and  _410
REMARK  171  A    between atoms: _412  and  _414
REMARK  172  A    between atoms: _414  and  _415
REMARK  173  A    between atoms: _414  and  _417
REMARK  174  A    between atoms: _417  and  _418
REMARK  175  A    between atoms: _421  and  _423
REMARK  176  A    between atoms: _423  and  _424
REMARK  177  A    between atoms: _426  and  _428
REMARK  178  A    between atoms: _428  and  _429
REMARK  179  A    between atoms: _431  and  _433
REMARK  180  A    between atoms: _433  and  _434
REMARK  181  A    between atoms: _433  and  _436
REMARK  182  A    between atoms: _436  and  _437
REMARK  183  A    between atoms: _440  and  _442
REMARK  184  A    between atoms: _442  and  _443
REMARK  185  A    between atoms: _445  and  _447
REMARK  186  A    between atoms: _447  and  _448
REMARK  187  A    between atoms: _450  and  _452
REMARK  188  A    between atoms: _452  and  _453
REMARK  189  A    between atoms: _452  and  _455
REMARK  190  A    between atoms: _455  and  _456
REMARK  191  A    between atoms: _462  and  _464
REMARK  192  A    between atoms: _464  and  _465
REMARK  193  A    between atoms: _464  and  _467
REMARK  194  A    between atoms: _467  and  _468
REMARK  195  A    between atoms: _471  and  _473
REMARK  196  A    between atoms: _473  and  _474
REMARK  197  A    between atoms: _473  and  _476
REMARK  198  A    between atoms: _476  and  _477
REMARK  199  A    between atoms: _480  and  _482
REMARK  200  A    between atoms: _482  and  _483
REMARK  201  A    between atoms: _482  and  _485
REMARK  202  A    between atoms: _485  and  _486
REMARK  203  A    between atoms: _490  and  _491
REMARK  204  A    between atoms: _496  and  _498
REMARK  205  A    between atoms: _498  and  _499
REMARK  206  A    between atoms: _498  and  _501
REMARK  207  A    between atoms: _504  and  _506
REMARK  208  A    between atoms: _506  and  _507
REMARK  209  A    between atoms: _506  and  _509
REMARK  210  A    between atoms: _509  and  _510
REMARK  211  A    between atoms: _515  and  _517
REMARK  212  A    between atoms: _517  and  _518
REMARK  213  A    between atoms: _517  and  _520
REMARK  214  A    between atoms: _520  and  _521
REMARK  215  A    between atoms: _524  and  _526
REMARK  216  A    between atoms: _526  and  _527
REMARK  217  A    between atoms: _529  and  _531
REMARK  218  A    between atoms: _531  and  _532
REMARK  219  A    between atoms: _531  and  _534
REMARK  220  A    between atoms: _534  and  _535
REMARK  221  A    between atoms: _535  and  _536
REMARK  222  A    between atoms: _536  and  _537
REMARK  223  A    between atoms: _546  and  _548
REMARK  224  A    between atoms: _548  and  _549
REMARK  225  A    between atoms: _548  and  _551
REMARK  226  A    between atoms: _551  and  _552
REMARK                            x       y       z     vdW  Elec       q    Type
REMARK                         _______ _______ _______ _____ _____    ______ ____
ROOT
ATOM      1  NE  ARG A   1      23.017  30.399  22.481  0.00  0.00    -0.265 N 
ATOM      2  CZ  ARG A   1      24.255  29.904  22.390  0.00  0.00    +0.342 C 
ATOM      3  NH2 ARG A   1      24.999  29.656  23.471  0.00  0.00    -0.292 N 
ATOM      4 HH21 ARG A   1      24.618  29.848  24.420  0.00  0.00    +0.255 HD
ATOM      5 HH22 ARG A   1      25.959  29.271  23.364  0.00  0.00    +0.255 HD
ATOM      6  NH1 ARG A   1      24.765  29.623  21.189  0.00  0.00    -0.292 N 
ATOM      7 HH11 ARG A   1      25.728  29.238  21.110  0.00  0.00    +0.255 HD
ATOM      8 HH12 ARG A   1      24.200  29.790  20.332  0.00  0.00    +0.255 HD
ATOM      9  HE  ARG A   1      22.482  30.555  21.603  0.00  0.00    +0.259 HD
ENDROOT
BRANCH   1  10
ATOM     10  CD  ARG A   1      22.375  30.734  23.757  0.00  0.00    +0.174 C 
BRANCH  10  11
ATOM     11  CG  ARG A   1      21.343  31.844  23.528  0.00  0.00    +0.045 C 
BRANCH  11  12
ATOM     12  CB  ARG A   1      20.529  32.100  24.809  0.00  0.00    +0.029 C 
BRANCH  12  13
ATOM     13  CA  ARG A   1      19.532  33.245  24.611  0.00  0.00    +0.133 C 
BRANCH  13  14
ATOM     14  N   ARG A   1      20.262  34.519  24.515  0.00  0.00    -0.239 NA
ATOM     15  H   ARG A   1      21.300  34.538  24.573  0.00  0.00    +0.142 HD
ENDBRANCH  13  14
BRANCH  13  16
ATOM     16  C   ARG A   1      18.582  33.283  25.777  0.00  0.00    +0.224 C 
ATOM     17  O   ARG A   1      19.016  33.768  26.837  0.00  0.00    -0.287 OA
ENDBRANCH  13  16
ENDBRANCH  12  13
ENDBRANCH  11  12
ENDBRANCH  10  11
ENDBRANCH   1  10
TORSDOF 6
REMARK  Name = ../refined-set-2016/5bry/5bry_pocket.pdb
REMARK  226 active torsions:
REMARK  status: ('A' for Active; 'I' for Inactive)
REMARK    1  A    between atoms: _1  and  _3
REMARK    2  A    between atoms: _3  and  _4
REMARK    3  A    between atoms: _3  and  _6
REMARK    4  A    between atoms: _6  and  _7
REMARK    5  A    between atoms: _7  and  _8
REMARK    6  A    between atoms: _8  and  _9
REMARK    7  A    between atoms: _18  and  _20
REMARK    8  A    between atoms: _20  and  _21
REMARK    9  A    between atoms: _20  and  _23
REMARK   10  A    between atoms: _23  and  _24
REMARK   11  A    between atoms: _27  and  _29
REMARK   12  A    between atoms: _29  and  _30
REMARK   13  A    between atoms: _29  and  _32
REMARK   14  A    between atoms: _32  and  _33
REMARK   15  A    between atoms: _36  and  _38
REMARK   16  A    between atoms: _38  and  _39
REMARK   17  A    between atoms: _38  and  _41
REMARK   18  A    between atoms: _41  and  _42
REMARK   19  A    between atoms: _45  and  _47
REMARK   20  A    between atoms: _47  and  _48
REMARK   21  A    between atoms: _47  and  _50
REMARK   22  A    between atoms: _50  and  _51
REMARK   23  A    between atoms: _54  and  _56
REMARK   24  A    between atoms: _56  and  _57
REMARK   25  A    between atoms: _59  and  _61
REMARK   26  A    between atoms: _61  and  _62
REMARK   27  A    between atoms: _65  and  _67
REMARK   28  A    between atoms: _67  and  _68
REMARK   29  A    between atoms: _67  and  _70
REMARK   30  A    between atoms: _70  and  _71
REMARK   31  A    between atoms: _74  and  _76
REMARK   32  A    between atoms: _76  and  _77
REMARK   33  A    between atoms: _76  and  _79
REMARK   34  A    between atoms: _79  and  _80
REMARK   35  A    between atoms: _83  and  _85
REMARK   36  A    between atoms: _85  and  _86
REMARK   37  A    between atoms: _85  and  _88
REMARK   38  A    between atoms: _88  and  _89
REMARK   39  A    between atoms: _92  and  _94
REMARK   40  A    between atoms: _94  and  _95
REMARK   41  A    between atoms: _94  and  _97
REMARK   42  A    between atoms: _100  and  _102
REMARK   43  A    between atoms: _102  and  _103
REMARK   44  A    between atoms: _102  and  _105
REMARK   45  A    between atoms: _105  and  _106
REMARK   46  A    between atoms: _106  and  _107
REMARK   47  A    between atoms: _107  and  _108
REMARK   48  A    between atoms: _108  and  _109
REMARK   49  A    between atoms: _113  and  _115
REMARK   50  A    between atoms: _115  and  _116
REMARK   51  A    between atoms: _115  and  _118
REMARK   52  A    between atoms: _118  and  _119
REMARK   53  A    between atoms: _119  and  _120
REMARK   54  A    between atoms: _122  and  _124
REMARK   55  A    between atoms: _124  and  _125
REMARK   56  A    between atoms: _124  and  _127
REMARK   57  A    between atoms: _127  and  _128
REMARK   58  A    between atoms: _131  and  _133
REMARK   59  A    between atoms: _133  and  _134
REMARK   60  A    between atoms: _136  and  _138
REMARK   61  A    between atoms: _138  and  _139
REMARK   62  A    between atoms: _141  and  _143
REMARK   63  A    between atoms: _143  and  _144
REMARK   64  A    between atoms: _143  and  _146
REMARK   65  A    between atoms: _146  and  _147
REMARK   66  A    between atoms: _150  and  _152
REMARK   67  A    between atoms: _152  and  _153
REMARK   68  A    between atoms: _155  and  _157
REMARK   69  A    between atoms: _157  and  _158
REMARK   70  A    between atoms: _160  and  _162
REMARK   71  A    between atoms: _162  and  _163
REMARK   72  A    between atoms: _162  and  _165
REMARK   73  A    between atoms: _165  and  _166
REMARK   74  A    between atoms: _172  and  _174
REMARK   75  A    between atoms: _174  and  _175
REMARK   76  A    between atoms: _174  and  _177
REMARK   77  A    between atoms: _177  and  _178
REMARK   78  A    between atoms: _181  and  _183
REMARK   79  A    between atoms: _183  and  _184
REMARK   80  A    between atoms: _183  and  _186
REMARK   81  A    between atoms: _189  and  _191
REMARK   82  A    between atoms: _191  and  _192
REMARK   83  A    between atoms: _191  and  _194
REMARK   84  A    between atoms: _194  and  _195
REMARK   85  A    between atoms: _199  and  _200
REMARK   86  A    between atoms: _205  and  _207
REMARK   87  A    between atoms: _207  and  _208
REMARK   88  A    between atoms: _207  and  _210
REMARK   89  A    between atoms: _210  and  _211
REMARK   90  A    between atoms: _215  and  _216
REMARK   91  A    between atoms: _221  and  _223
REMARK   92  A    between atoms: _223  and  _224
REMARK   93  A    between atoms: _223  and  _226
REMARK   94  A    between atoms: _229  and  _231
REMARK   95  A    between atoms: _231  and  _232
REMARK   96  A    between atoms: _231  and  _234
REMARK   97  A    between atoms: _234  and  _235
REMARK   98  A    between atoms: _240  and  _242
REMARK   99  A    between atoms: _242  and  _243
REMARK  100  A    between atoms: _242  and  _245
REMARK  101  A    between atoms: _245  and  _246
REMARK  102  A    between atoms: _249  and  _251
REMARK  103  A    between atoms: _251  and  _252
REMARK  104  A    between atoms: _251  and  _254
REMARK  105  A    between atoms: _254  and  _255
REMARK  106  A    between atoms: _258  and  _260
REMARK  107  A    between atoms: _260  and  _261
REMARK  108  A    between atoms: _263  and  _265
REMARK  109  A    between atoms: _265  and  _266
REMARK  110  A    between atoms: _265  and  _268
REMARK  111  A    between atoms: _268  and  _269
REMARK  112  A    between atoms: _269  and  _270
REMARK  113  A    between atoms: _270  and  _271
REMARK  114  A    between atoms: _280  and  _282
REMARK  115  A    between atoms: _282  and  _283
REMARK  116  A    between atoms: _282  and  _285
REMARK  117  A    between atoms: _285  and  _286
REMARK  118  A    between atoms: _291  and  _293
REMARK  119  A    between atoms: _293  and  _294
REMARK  120  A    between atoms: _293  and  _296
REMARK  121  A    between atoms: _296  and  _297
REMARK  122  A    between atoms: _297  and  _298
REMARK  123  A    between atoms: _298  and  _299
REMARK  124  A    between atoms: _308  and  _310
REMARK  125  A    between atoms: _310  and  _311
REMARK  126  A    between atoms: _310  and  _313
REMARK  127  A    between atoms: _313  and  _314
REMARK  128  A    between atoms: _317  and  _319
REMARK  129  A    between atoms: _319  and  _320
REMARK  130  A    between atoms: _319  and  _322
REMARK  131  A    between atoms: _322  and  _323
REMARK  132  A    between atoms: _326  and  _328
REMARK  133  A    between atoms: _328  and  _329
REMARK  134  A    between atoms: _328  and  _331
REMARK  135  A    between atoms: _331  and  _332
REMARK  136  A    between atoms: _335  and  _337
REMARK  137  A    between atoms: _337  and  _338
REMARK  138  A    between atoms: _337  and  _340
REMARK  139  A    between atoms: _340  and  _341
REMARK  140  A    between atoms: _344  and  _346
REMARK  141  A    between atoms: _346  and  _347
REMARK  142  A    between atoms: _349  and  _351
REMARK  143  A    between atoms: _351  and  _352
REMARK  144  A    between atoms: _355  and  _357
REMARK  145  A    between atoms: _357  and  _358
REMARK  146  A    between atoms: _357  and  _360
REMARK  147  A    between atoms: _360  and  _361
REMARK  148  A    between atoms: _364  and  _366
REMARK  149  A    between atoms: _366  and  _367
REMARK  150  A    between atoms: _366  and  _369
REMARK  151  A    between atoms: _369  and  _370
REMARK  152  A    between atoms: _373  and  _375
REMARK  153  A    between atoms: _375  and  _376
REMARK  154  A    between atoms: _375  and  _378
REMARK  155  A    between atoms: _378  and  _379
REMARK  156  A    between atoms: _382  and  _384
REMARK  157  A    between atoms: _384  and  _385
REMARK  158  A    between atoms: _384  and  _387
REMARK  159  A    between atoms: _390  and  _392
REMARK  160  A    between atoms: _392  and  _393
REMARK  161  A    between atoms: _392  and  _395
REMARK  162  A    between atoms: _395  and  _396
REMARK  163  A    between atoms: _396  and  _397
REMARK  164  A    between atoms: _397  and  _398
REMARK  165  A    between atoms: _398  and  _399
REMARK  166  A    between atoms: _403  and  _405
REMARK  167  A    between atoms: _405  and  _406
REMARK  168  A    between atoms: _405  and  _408
REMARK  169  A    between atoms: _408  and  _409
REMARK  170  A    between atoms: _409  and  _410
REMARK  171  A    between atoms: _412  and  _414
REMARK  172  A    between atoms: _414  and  _415
REMARK  173  A    between atoms: _414  and  _417
REMARK  174  A    between atoms: _417  and  _418
REMARK  175  A    between atoms: _421  and  _423
REMARK  176  A    between atoms: _423  and  _424
REMARK  177  A    between atoms: _426  and  _428
REMARK  178  A    between atoms: _428  and  _429
REMARK  179  A    between atoms: _431  and  _433
REMARK  180  A    between atoms: _433  and  _434
REMARK  181  A    between atoms: _433  and  _436
REMARK  182  A    between atoms: _436  and  _437
REMARK  183  A    between atoms: _440  and  _442
REMARK  184  A    between atoms: _442  and  _443
REMARK  185  A    between atoms: _445  and  _447
REMARK  186  A    between atoms: _447  and  _448
REMARK  187  A    between atoms: _450  and  _452
REMARK  188  A    between atoms: _452  and  _453
REMARK  189  A    between atoms: _452  and  _455
REMARK  190  A    between atoms: _455  and  _456
REMARK  191  A    between atoms: _462  and  _464
REMARK  192  A    between atoms: _464  and  _465
REMARK  193  A    between atoms: _464  and  _467
REMARK  194  A    between atoms: _467  and  _468
REMARK  195  A    between atoms: _471  and  _473
REMARK  196  A    between atoms: _473  and  _474
REMARK  197  A    between atoms: _473  and  _476
REMARK  198  A    between atoms: _476  and  _477
REMARK  199  A    between atoms: _480  and  _482
REMARK  200  A    between atoms: _482  and  _483
REMARK  201  A    between atoms: _482  and  _485
REMARK  202  A    between atoms: _485  and  _486
REMARK  203  A    between atoms: _490  and  _491
REMARK  204  A    between atoms: _496  and  _498
REMARK  205  A    between atoms: _498  and  _499
REMARK  206  A    between atoms: _498  and  _501
REMARK  207  A    between atoms: _504  and  _506
REMARK  208  A    between atoms: _506  and  _507
REMARK  209  A    between atoms: _506  and  _509
REMARK  210  A    between atoms: _509  and  _510
REMARK  211  A    between atoms: _515  and  _517
REMARK  212  A    between atoms: _517  and  _518
REMARK  213  A    between atoms: _517  and  _520
REMARK  214  A    between atoms: _520  and  _521
REMARK  215  A    between atoms: _524  and  _526
REMARK  216  A    between atoms: _526  and  _527
REMARK  217  A    between atoms: _529  and  _531
REMARK  218  A    between atoms: _531  and  _532
REMARK  219  A    between atoms: _531  and  _534
REMARK  220  A    between atoms: _534  and  _535
REMARK  221  A    between atoms: _535  and  _536
REMARK  222  A    between atoms: _536  and  _537
REMARK  223  A    between atoms: _546  and  _548
REMARK  224  A    between atoms: _548  and  _549
REMARK  225  A    between atoms: _548  and  _551
REMARK  226  A    between atoms: _551  and  _552
REMARK                            x       y       z     vdW  Elec       q    Type
REMARK                         _______ _______ _______ _____ _____    ______ ____
ROOT
ATOM      1  C   GLY A   5      10.947  24.092  18.500  0.00  0.00    +0.243 C 
ATOM      2  N   ALA A   6      10.886  23.743  19.767  0.00  0.00    -0.297 N 
ATOM      3  H   ALA A   6      10.784  24.493  20.480  0.00  0.00    +0.150 HD
ATOM      4  O   GLY A   5      11.086  23.251  17.561  0.00  0.00    -0.273 OA
ENDROOT
BRANCH   2   5
ATOM      5  CA  ALA A   6      10.953  22.366  20.222  0.00  0.00    +0.149 C 
ATOM      6  CB  ALA A   6      11.902  22.297  21.428  0.00  0.00    +0.031 C 
BRANCH   5   7
ATOM      7  C   ALA A   6       9.573  21.871  20.640  0.00  0.00    +0.241 C 
ATOM      8  O   ALA A   6       8.941  22.500  21.505  0.00  0.00    -0.273 OA
ATOM      9  N   ASP A   7       9.106  20.762  20.064  0.00  0.00    -0.297 N 
ATOM     10  H   ASP A   7       9.635  20.289  19.303  0.00  0.00    +0.150 HD
BRANCH   9  11
ATOM     11  CA  ASP A   7       7.830  20.233  20.535  0.00  0.00    +0.160 C 
BRANCH  11  12
ATOM     12  C   ASP A   7       7.947  19.741  21.966  0.00  0.00    +0.241 C 
ATOM     13  O   ASP A   7       7.024  19.779  22.766  0.00  0.00    -0.273 OA
ATOM     14  N   ASP A   8       9.090  19.151  22.269  0.00  0.00    -0.297 N 
ATOM     15  H   ASP A   8       9.858  19.317  21.588  0.00  0.00    +0.150 HD
BRANCH  14  16
ATOM     16  CA  ASP A   8       9.451  18.307  23.400  0.00  0.00    +0.160 C 
BRANCH  16  17
ATOM     17  C   ASP A   8      10.536  18.925  24.258  0.00  0.00    +0.241 C 
ATOM     18  N   THR A   9      10.612  18.600  25.529  0.00  0.00    -0.295 N 
ATOM     19  H   THR A   9       9.847  18.007  25.911  0.00  0.00    +0.150 HD
ATOM     20  O   ASP A   8      11.377  19.655  23.710  0.00  0.00    -0.273 OA
BRANCH  18  21
ATOM     21  CA  THR A   9      11.662  18.990  26.449  0.00  0.00    +0.176 C 
BRANCH  21  22
ATOM     22  C   THR A   9      12.746  17.940  26.431  0.00  0.00    +0.243 C 
ATOM     23  O   THR A   9      12.414  16.755  26.600  0.00  0.00    -0.273 OA
ATOM     24  N   VAL A  10      14.003  18.362  26.219  0.00  0.00    -0.298 N 
ATOM     25  H   VAL A  10      14.199  19.382  26.159  0.00  0.00    +0.150 HD
BRANCH  24  26
ATOM     26  CA  VAL A  10      15.093  17.413  26.073  0.00  0.00    +0.137 C 
BRANCH  26  27
ATOM     27  CB  VAL A  10      15.632  17.337  24.611  0.00  0.00    +0.026 C 
ATOM     28  CG2 VAL A  10      16.555  16.124  24.495  0.00  0.00    +0.002 C 
ATOM     29  CG1 VAL A  10      14.495  17.247  23.618  0.00  0.00    +0.002 C 
ENDBRANCH  26  27
BRANCH  26  30
ATOM     30  C   VAL A  10      16.219  17.856  26.988  0.00  0.00    +0.227 C 
ATOM     31  O   VAL A  10      16.643  19.018  26.859  0.00  0.00    -0.286 OA
ENDBRANCH  26  30
ENDBRANCH  24  26
ENDBRANCH  21  22
BRANCH  21  32
ATOM     32  CB  THR A   9      11.014  19.153  27.844  0.00  0.00    +0.137 C 
ATOM     33  CG2 THR A   9      12.078  19.383  28.922  0.00  0.00    +0.034 C 
BRANCH  32  34
ATOM     34  OG1 THR A   9      10.175  20.331  27.763  0.00  0.00    -0.382 OA
ATOM     35  HG1 THR A   9       9.487  20.198  27.063  0.00  0.00    +0.210 HD
ENDBRANCH  32  34
ENDBRANCH  21  32
ENDBRANCH  18  21
ENDBRANCH  16  17
BRANCH  16  36
ATOM     36  CB  ASP A   8      10.003  16.964  22.866  0.00  0.00    +0.143 C 
BRANCH  36  37
ATOM     37  CG  ASP A   8       9.078  16.338  21.845  0.00  0.00    +0.367 C 
ATOM     38  OD2 ASP A   8       7.855  16.241  22.169  0.00  0.00    -0.246 OA
ATOM     39  OD1 ASP A   8       9.527  15.929  20.736  0.00  0.00    -0.246 OA
ENDBRANCH  36  37
ENDBRANCH  16  36
ENDBRANCH  14  16
ENDBRANCH  11  12
BRANCH  11  40
ATOM     40  CB  ASP A   7       7.449  19.009  19.689  0.00  0.00    +0.143 C 
BRANCH  40  41
ATOM     41  CG  ASP A   7       7.116  19.334  18.253  0.00  0.00    +0.367 C 
ATOM     42  OD2 ASP A   7       6.888  20.493  17.844  0.00  0.00    -0.246 OA
ATOM     43  OD1 ASP A   7       7.096  18.362  17.468  0.00  0.00    -0.246 OA
ENDBRANCH  40  41
ENDBRANCH  11  40
ENDBRANCH   9  11
ENDBRANCH   5   7
ENDBRANCH   2   5
BRANCH   1  44
ATOM     44  CA  GLY A   5      10.829  25.558  18.148  0.00  0.00    +0.176 C 
BRANCH  44  46
ATOM     45  C   THR A   4       9.464  26.680  19.779  0.00  0.00    +0.243 C 
ATOM     46  N   GLY A   5      10.689  26.464  19.291  0.00  0.00    -0.295 N 
ATOM     47  H   GLY A   5      11.520  26.926  19.711  0.00  0.00    +0.150 HD
ATOM     48  O   THR A   4       8.412  26.227  19.269  0.00  0.00    -0.273 OA
BRANCH  45  49
ATOM     49  CA  THR A   4       9.399  27.556  21.031  0.00  0.00    +0.176 C 
BRANCH  49  52
ATOM     50  C   ASP A   3      11.223  26.630  22.309  0.00  0.00    +0.241 C 
ATOM     51  O   ASP A   3      10.670  25.509  22.312  0.00  0.00    -0.273 OA
ATOM     52  N   THR A   4      10.703  27.680  21.652  0.00  0.00    -0.295 N 
ATOM     53  H   THR A   4      11.231  28.574  21.589  0.00  0.00    +0.150 HD
BRANCH  50  54
ATOM     54  CA  ASP A   3      12.544  26.871  23.002  0.00  0.00    +0.160 C 
BRANCH  54  56
ATOM     55  C   LEU A   2      12.956  28.209  25.007  0.00  0.00    +0.241 C 
ATOM     56  N   ASP A   3      12.414  27.144  24.428  0.00  0.00    -0.297 N 
ATOM     57  H   ASP A   3      11.875  26.477  25.016  0.00  0.00    +0.150 HD
ATOM     58  O   LEU A   2      13.361  29.173  24.336  0.00  0.00    -0.273 OA
BRANCH  55  59
ATOM     59  CA  LEU A   2      13.083  28.247  26.519  0.00  0.00    +0.149 C 
BRANCH  59  61
ATOM     60  C   LEU A   1      15.231  27.140  26.760  0.00  0.00    +0.238 C 
ATOM     61  N   LEU A   2      14.508  28.252  26.831  0.00  0.00    -0.297 N 
ATOM     62  H   LEU A   2      14.966  29.142  27.114  0.00  0.00    +0.150 HD
ATOM     63  O   LEU A   1      14.702  26.046  26.518  0.00  0.00    -0.274 OA
BRANCH  60  64
ATOM     64  CA  LEU A   1      16.748  27.223  26.947  0.00  0.00    +0.145 C 
BRANCH  64  65
ATOM     65  N   LEU A   1      17.188  26.243  27.919  0.00  0.00    -0.238 NA
ATOM     66  H   LEU A   1      17.369  25.268  27.606  0.00  0.00    +0.142 HD
ENDBRANCH  64  65
BRANCH  64  67
ATOM     67  CB  LEU A   1      17.541  26.838  25.691  0.00  0.00    +0.026 C 
BRANCH  67  68
ATOM     68  CG  LEU A   1      17.533  27.671  24.455  0.00  0.00    +0.002 C 
ATOM     69  CD2 LEU A   1      18.168  29.006  24.816  0.00  0.00    +0.000 C 
ATOM     70  CD1 LEU A   1      18.263  26.928  23.339  0.00  0.00    +0.000 C 
ENDBRANCH  67  68
ENDBRANCH  64  67
ENDBRANCH  60  64
ENDBRANCH  59  61
BRANCH  59  71
ATOM     71  CB  LEU A   2      12.374  29.472  27.077  0.00  0.00    +0.029 C 
BRANCH  71  72
ATOM     72  CG  LEU A   2      12.468  29.643  28.616  0.00  0.00    +0.002 C 
ATOM     73  CD2 LEU A   2      11.895  28.464  29.361  0.00  0.00    +0.000 C 
ATOM     74  CD1 LEU A   2      11.768  30.949  29.007  0.00  0.00    +0.000 C 
ENDBRANCH  71  72
ENDBRANCH  59  71
ENDBRANCH  55  59
ENDBRANCH  54  56
BRANCH  54  75
ATOM     75  CB  ASP A   3      13.420  25.632  22.859  0.00  0.00    +0.143 C 
BRANCH  75  76
ATOM     76  CG  ASP A   3      13.866  25.419  21.445  0.00  0.00    +0.367 C 
ATOM     77  OD2 ASP A   3      14.728  24.549  21.237  0.00  0.00    -0.246 OA
ATOM     78  OD1 ASP A   3      13.334  26.153  20.561  0.00  0.00    -0.246 OA
ENDBRANCH  75  76
ENDBRANCH  54  75
ENDBRANCH  50  54
ENDBRANCH  49  52
BRANCH  49  79
ATOM     79  CB  THR A   4       8.840  28.933  20.652  0.00  0.00    +0.137 C 
ATOM     80  CG2 THR A   4       8.613  29.785  21.909  0.00  0.00    +0.034 C 
BRANCH  79  81
ATOM     81  OG1 THR A   4       9.754  29.611  19.780  0.00  0.00    -0.382 OA
ATOM     82  HG1 THR A   4       9.884  29.074  18.958  0.00  0.00    +0.210 HD
ENDBRANCH  79  81
ENDBRANCH  49  79
ENDBRANCH  45  49
ENDBRANCH  44  46
ENDBRANCH   1  44
TORSDOF 35
REMARK  Name = ../refined-set-2016/5bry/5bry_pocket.pdb
REMARK  226 active torsions:
REMARK  status: ('A' for Active; 'I' for Inactive)
REMARK    1  A    between atoms: _1  and  _3
REMARK    2  A    between atoms: _3  and  _4
REMARK    3  A    between atoms: _3  and  _6
REMARK    4  A    between atoms: _6  and  _7
REMARK    5  A    between atoms: _7  and  _8
REMARK    6  A    between atoms: _8  and  _9
REMARK    7  A    between atoms: _18  and  _20
REMARK    8  A    between atoms: _20  and  _21
REMARK    9  A    between atoms: _20  and  _23
REMARK   10  A    between atoms: _23  and  _24
REMARK   11  A    between atoms: _27  and  _29
REMARK   12  A    between atoms: _29  and  _30
REMARK   13  A    between atoms: _29  and  _32
REMARK   14  A    between atoms: _32  and  _33
REMARK   15  A    between atoms: _36  and  _38
REMARK   16  A    between atoms: _38  and  _39
REMARK   17  A    between atoms: _38  and  _41
REMARK   18  A    between atoms: _41  and  _42
REMARK   19  A    between atoms: _45  and  _47
REMARK   20  A    between atoms: _47  and  _48
REMARK   21  A    between atoms: _47  and  _50
REMARK   22  A    between atoms: _50  and  _51
REMARK   23  A    between atoms: _54  and  _56
REMARK   24  A    between atoms: _56  and  _57
REMARK   25  A    between atoms: _59  and  _61
REMARK   26  A    between atoms: _61  and  _62
REMARK   27  A    between atoms: _65  and  _67
REMARK   28  A    between atoms: _67  and  _68
REMARK   29  A    between atoms: _67  and  _70
REMARK   30  A    between atoms: _70  and  _71
REMARK   31  A    between atoms: _74  and  _76
REMARK   32  A    between atoms: _76  and  _77
REMARK   33  A    between atoms: _76  and  _79
REMARK   34  A    between atoms: _79  and  _80
REMARK   35  A    between atoms: _83  and  _85
REMARK   36  A    between atoms: _85  and  _86
REMARK   37  A    between atoms: _85  and  _88
REMARK   38  A    between atoms: _88  and  _89
REMARK   39  A    between atoms: _92  and  _94
REMARK   40  A    between atoms: _94  and  _95
REMARK   41  A    between atoms: _94  and  _97
REMARK   42  A    between atoms: _100  and  _102
REMARK   43  A    between atoms: _102  and  _103
REMARK   44  A    between atoms: _102  and  _105
REMARK   45  A    between atoms: _105  and  _106
REMARK   46  A    between atoms: _106  and  _107
REMARK   47  A    between atoms: _107  and  _108
REMARK   48  A    between atoms: _108  and  _109
REMARK   49  A    between atoms: _113  and  _115
REMARK   50  A    between atoms: _115  and  _116
REMARK   51  A    between atoms: _115  and  _118
REMARK   52  A    between atoms: _118  and  _119
REMARK   53  A    between atoms: _119  and  _120
REMARK   54  A    between atoms: _122  and  _124
REMARK   55  A    between atoms: _124  and  _125
REMARK   56  A    between atoms: _124  and  _127
REMARK   57  A    between atoms: _127  and  _128
REMARK   58  A    between atoms: _131  and  _133
REMARK   59  A    between atoms: _133  and  _134
REMARK   60  A    between atoms: _136  and  _138
REMARK   61  A    between atoms: _138  and  _139
REMARK   62  A    between atoms: _141  and  _143
REMARK   63  A    between atoms: _143  and  _144
REMARK   64  A    between atoms: _143  and  _146
REMARK   65  A    between atoms: _146  and  _147
REMARK   66  A    between atoms: _150  and  _152
REMARK   67  A    between atoms: _152  and  _153
REMARK   68  A    between atoms: _155  and  _157
REMARK   69  A    between atoms: _157  and  _158
REMARK   70  A    between atoms: _160  and  _162
REMARK   71  A    between atoms: _162  and  _163
REMARK   72  A    between atoms: _162  and  _165
REMARK   73  A    between atoms: _165  and  _166
REMARK   74  A    between atoms: _172  and  _174
REMARK   75  A    between atoms: _174  and  _175
REMARK   76  A    between atoms: _174  and  _177
REMARK   77  A    between atoms: _177  and  _178
REMARK   78  A    between atoms: _181  and  _183
REMARK   79  A    between atoms: _183  and  _184
REMARK   80  A    between atoms: _183  and  _186
REMARK   81  A    between atoms: _189  and  _191
REMARK   82  A    between atoms: _191  and  _192
REMARK   83  A    between atoms: _191  and  _194
REMARK   84  A    between atoms: _194  and  _195
REMARK   85  A    between atoms: _199  and  _200
REMARK   86  A    between atoms: _205  and  _207
REMARK   87  A    between atoms: _207  and  _208
REMARK   88  A    between atoms: _207  and  _210
REMARK   89  A    between atoms: _210  and  _211
REMARK   90  A    between atoms: _215  and  _216
REMARK   91  A    between atoms: _221  and  _223
REMARK   92  A    between atoms: _223  and  _224
REMARK   93  A    between atoms: _223  and  _226
REMARK   94  A    between atoms: _229  and  _231
REMARK   95  A    between atoms: _231  and  _232
REMARK   96  A    between atoms: _231  and  _234
REMARK   97  A    between atoms: _234  and  _235
REMARK   98  A    between atoms: _240  and  _242
REMARK   99  A    between atoms: _242  and  _243
REMARK  100  A    between atoms: _242  and  _245
REMARK  101  A    between atoms: _245  and  _246
REMARK  102  A    between atoms: _249  and  _251
REMARK  103  A    between atoms: _251  and  _252
REMARK  104  A    between atoms: _251  and  _254
REMARK  105  A    between atoms: _254  and  _255
REMARK  106  A    between atoms: _258  and  _260
REMARK  107  A    between atoms: _260  and  _261
REMARK  108  A    between atoms: _263  and  _265
REMARK  109  A    between atoms: _265  and  _266
REMARK  110  A    between atoms: _265  and  _268
REMARK  111  A    between atoms: _268  and  _269
REMARK  112  A    between atoms: _269  and  _270
REMARK  113  A    between atoms: _270  and  _271
REMARK  114  A    between atoms: _280  and  _282
REMARK  115  A    between atoms: _282  and  _283
REMARK  116  A    between atoms: _282  and  _285
REMARK  117  A    between atoms: _285  and  _286
REMARK  118  A    between atoms: _291  and  _293
REMARK  119  A    between atoms: _293  and  _294
REMARK  120  A    between atoms: _293  and  _296
REMARK  121  A    between atoms: _296  and  _297
REMARK  122  A    between atoms: _297  and  _298
REMARK  123  A    between atoms: _298  and  _299
REMARK  124  A    between atoms: _308  and  _310
REMARK  125  A    between atoms: _310  and  _311
REMARK  126  A    between atoms: _310  and  _313
REMARK  127  A    between atoms: _313  and  _314
REMARK  128  A    between atoms: _317  and  _319
REMARK  129  A    between atoms: _319  and  _320
REMARK  130  A    between atoms: _319  and  _322
REMARK  131  A    between atoms: _322  and  _323
REMARK  132  A    between atoms: _326  and  _328
REMARK  133  A    between atoms: _328  and  _329
REMARK  134  A    between atoms: _328  and  _331
REMARK  135  A    between atoms: _331  and  _332
REMARK  136  A    between atoms: _335  and  _337
REMARK  137  A    between atoms: _337  and  _338
REMARK  138  A    between atoms: _337  and  _340
REMARK  139  A    between atoms: _340  and  _341
REMARK  140  A    between atoms: _344  and  _346
REMARK  141  A    between atoms: _346  and  _347
REMARK  142  A    between atoms: _349  and  _351
REMARK  143  A    between atoms: _351  and  _352
REMARK  144  A    between atoms: _355  and  _357
REMARK  145  A    between atoms: _357  and  _358
REMARK  146  A    between atoms: _357  and  _360
REMARK  147  A    between atoms: _360  and  _361
REMARK  148  A    between atoms: _364  and  _366
REMARK  149  A    between atoms: _366  and  _367
REMARK  150  A    between atoms: _366  and  _369
REMARK  151  A    between atoms: _369  and  _370
REMARK  152  A    between atoms: _373  and  _375
REMARK  153  A    between atoms: _375  and  _376
REMARK  154  A    between atoms: _375  and  _378
REMARK  155  A    between atoms: _378  and  _379
REMARK  156  A    between atoms: _382  and  _384
REMARK  157  A    between atoms: _384  and  _385
REMARK  158  A    between atoms: _384  and  _387
REMARK  159  A    between atoms: _390  and  _392
REMARK  160  A    between atoms: _392  and  _393
REMARK  161  A    between atoms: _392  and  _395
REMARK  162  A    between atoms: _395  and  _396
REMARK  163  A    between atoms: _396  and  _397
REMARK  164  A    between atoms: _397  and  _398
REMARK  165  A    between atoms: _398  and  _399
REMARK  166  A    between atoms: _403  and  _405
REMARK  167  A    between atoms: _405  and  _406
REMARK  168  A    between atoms: _405  and  _408
REMARK  169  A    between atoms: _408  and  _409
REMARK  170  A    between atoms: _409  and  _410
REMARK  171  A    between atoms: _412  and  _414
REMARK  172  A    between atoms: _414  and  _415
REMARK  173  A    between atoms: _414  and  _417
REMARK  174  A    between atoms: _417  and  _418
REMARK  175  A    between atoms: _421  and  _423
REMARK  176  A    between atoms: _423  and  _424
REMARK  177  A    between atoms: _426  and  _428
REMARK  178  A    between atoms: _428  and  _429
REMARK  179  A    between atoms: _431  and  _433
REMARK  180  A    between atoms: _433  and  _434
REMARK  181  A    between atoms: _433  and  _436
REMARK  182  A    between atoms: _436  and  _437
REMARK  183  A    between atoms: _440  and  _442
REMARK  184  A    between atoms: _442  and  _443
REMARK  185  A    between atoms: _445  and  _447
REMARK  186  A    between atoms: _447  and  _448
REMARK  187  A    between atoms: _450  and  _452
REMARK  188  A    between atoms: _452  and  _453
REMARK  189  A    between atoms: _452  and  _455
REMARK  190  A    between atoms: _455  and  _456
REMARK  191  A    between atoms: _462  and  _464
REMARK  192  A    between atoms: _464  and  _465
REMARK  193  A    between atoms: _464  and  _467
REMARK  194  A    between atoms: _467  and  _468
REMARK  195  A    between atoms: _471  and  _473
REMARK  196  A    between atoms: _473  and  _474
REMARK  197  A    between atoms: _473  and  _476
REMARK  198  A    between atoms: _476  and  _477
REMARK  199  A    between atoms: _480  and  _482
REMARK  200  A    between atoms: _482  and  _483
REMARK  201  A    between atoms: _482  and  _485
REMARK  202  A    between atoms: _485  and  _486
REMARK  203  A    between atoms: _490  and  _491
REMARK  204  A    between atoms: _496  and  _498
REMARK  205  A    between atoms: _498  and  _499
REMARK  206  A    between atoms: _498  and  _501
REMARK  207  A    between atoms: _504  and  _506
REMARK  208  A    between atoms: _506  and  _507
REMARK  209  A    between atoms: _506  and  _509
REMARK  210  A    between atoms: _509  and  _510
REMARK  211  A    between atoms: _515  and  _517
REMARK  212  A    between atoms: _517  and  _518
REMARK  213  A    between atoms: _517  and  _520
REMARK  214  A    between atoms: _520  and  _521
REMARK  215  A    between atoms: _524  and  _526
REMARK  216  A    between atoms: _526  and  _527
REMARK  217  A    between atoms: _529  and  _531
REMARK  218  A    between atoms: _531  and  _532
REMARK  219  A    between atoms: _531  and  _534
REMARK  220  A    between atoms: _534  and  _535
REMARK  221  A    between atoms: _535  and  _536
REMARK  222  A    between atoms: _536  and  _537
REMARK  223  A    between atoms: _546  and  _548
REMARK  224  A    between atoms: _548  and  _549
REMARK  225  A    between atoms: _548  and  _551
REMARK  226  A    between atoms: _551  and  _552
REMARK                            x       y       z     vdW  Elec       q    Type
REMARK                         _______ _______ _______ _____ _____    ______ ____
ROOT
ATOM      1  C   GLY A   5      17.428  18.534  13.509  0.00  0.00    +0.243 C 
ATOM      2  N   ILE A   6      18.143  19.644  13.639  0.00  0.00    -0.297 N 
ATOM      3  H   ILE A   6      18.236  20.110  14.564  0.00  0.00    +0.150 HD
ATOM      4  O   GLY A   5      17.430  17.853  12.475  0.00  0.00    -0.273 OA
ENDROOT
BRANCH   2   5
ATOM      5  CA  ILE A   6      18.793  20.194  12.463  0.00  0.00    +0.149 C 
BRANCH   5   6
ATOM      6  C   ILE A   6      19.752  19.217  11.835  0.00  0.00    +0.241 C 
ATOM      7  N   GLY A   7      20.474  18.445  12.658  0.00  0.00    -0.295 N 
ATOM      8  H   GLY A   7      20.284  18.410  13.680  0.00  0.00    +0.150 HD
ATOM      9  O   ILE A   6      19.751  19.150  10.594  0.00  0.00    -0.273 OA
BRANCH   7  10
ATOM     10  CA  GLY A   7      21.544  17.653  12.049  0.00  0.00    +0.176 C 
BRANCH  10  11
ATOM     11  C   GLY A   7      21.260  16.179  12.012  0.00  0.00    +0.243 C 
ATOM     12  N   GLY A   8      20.009  15.808  12.158  0.00  0.00    -0.295 N 
ATOM     13  H   GLY A   8      19.295  16.541  12.344  0.00  0.00    +0.150 HD
ATOM     14  O   GLY A   7      22.167  15.374  11.845  0.00  0.00    -0.273 OA
BRANCH  12  15
ATOM     15  CA  GLY A   8      19.569  14.421  12.073  0.00  0.00    +0.176 C 
BRANCH  15  16
ATOM     16  C   GLY A   8      18.857  13.938  13.325  0.00  0.00    +0.243 C 
ATOM     17  O   GLY A   8      18.381  14.774  14.101  0.00  0.00    -0.273 OA
ATOM     18  N   PHE A   9      18.755  12.627  13.491  0.00  0.00    -0.297 N 
ATOM     19  H   PHE A   9      19.213  11.995  12.804  0.00  0.00    +0.150 HD
BRANCH  18  20
ATOM     20  CA  PHE A   9      18.020  12.044  14.609  0.00  0.00    +0.153 C 
BRANCH  20  21
ATOM     21  C   PHE A   9      18.906  11.582  15.742  0.00  0.00    +0.241 C 
ATOM     22  N   ILE A  10      18.378  11.612  16.964  0.00  0.00    -0.298 N 
ATOM     23  H   ILE A  10      17.472  12.100  17.113  0.00  0.00    +0.150 HD
ATOM     24  O   PHE A   9      20.066  11.156  15.529  0.00  0.00    -0.273 OA
BRANCH  22  25
ATOM     25  CA  ILE A  10      19.036  10.981  18.092  0.00  0.00    +0.137 C 
BRANCH  25  26
ATOM     26  C   ILE A  10      18.020  10.103  18.808  0.00  0.00    +0.227 C 
ATOM     27  O   ILE A  10      16.800  10.393  18.752  0.00  0.00    -0.286 OA
ENDBRANCH  25  26
BRANCH  25  28
ATOM     28  CB  ILE A  10      19.618  11.970  19.107  0.00  0.00    +0.026 C 
ATOM     29  CG2 ILE A  10      20.792  12.780  18.515  0.00  0.00    +0.002 C 
BRANCH  28  30
ATOM     30  CG1 ILE A  10      18.610  12.943  19.731  0.00  0.00    +0.002 C 
ATOM     31  CD1 ILE A  10      19.199  13.766  20.872  0.00  0.00    +0.000 C 
ENDBRANCH  28  30
ENDBRANCH  25  28
ENDBRANCH  22  25
ENDBRANCH  20  21
BRANCH  20  32
ATOM     32  CB  PHE A   9      17.222  10.845  14.062  0.00  0.00    +0.055 C 
BRANCH  32  33
ATOM     33  CG  PHE A   9      16.003  11.320  13.272  0.00  0.00    -0.020 A 
ATOM     34  CD2 PHE A   9      14.783  11.443  13.907  0.00  0.00    -0.004 A 
ATOM     35  CE2 PHE A   9      13.649  11.873  13.248  0.00  0.00    -0.000 A 
ATOM     36  CZ  PHE A   9      13.742  12.215  11.906  0.00  0.00    -0.000 A 
ATOM     37  CE1 PHE A   9      14.963  12.094  11.255  0.00  0.00    -0.000 A 
ATOM     38  CD1 PHE A   9      16.090  11.648  11.934  0.00  0.00    -0.004 A 
ENDBRANCH  32  33
ENDBRANCH  20  32
ENDBRANCH  18  20
ENDBRANCH  15  16
ENDBRANCH  12  15
ENDBRANCH  10  11
ENDBRANCH   7  10
ENDBRANCH   5   6
BRANCH   5  39
ATOM     39  CB  ILE A   6      19.466  21.553  12.780  0.00  0.00    +0.027 C 
ATOM     40  CG2 ILE A   6      20.956  21.629  12.918  0.00  0.00    +0.002 C 
BRANCH  39  41
ATOM     41  CG1 ILE A   6      18.989  22.495  11.669  0.00  0.00    +0.002 C 
ATOM     42  CD1 ILE A   6      19.348  23.948  11.957  0.00  0.00    +0.000 C 
ENDBRANCH  39  41
ENDBRANCH   5  39
ENDBRANCH   2   5
BRANCH   1  43
ATOM     43  CA  GLY A   5      16.607  18.150  14.713  0.00  0.00    +0.176 C 
BRANCH  43  46
ATOM     44  C   GLY A   4      15.139  16.266  14.981  0.00  0.00    +0.243 C 
ATOM     45  O   GLY A   4      14.245  17.000  15.358  0.00  0.00    -0.273 OA
ATOM     46  N   GLY A   5      16.339  16.733  14.707  0.00  0.00    -0.295 N 
ATOM     47  H   GLY A   5      17.107  16.069  14.482  0.00  0.00    +0.150 HD
BRANCH  44  48
ATOM     48  CA  GLY A   4      14.943  14.782  14.817  0.00  0.00    +0.176 C 
BRANCH  48  51
ATOM     49  C   ILE A   3      14.668  13.403  16.787  0.00  0.00    +0.241 C 
ATOM     50  O   ILE A   3      15.844  13.053  16.775  0.00  0.00    -0.273 OA
ATOM     51  N   GLY A   4      14.160  14.252  15.914  0.00  0.00    -0.295 N 
ATOM     52  H   GLY A   4      13.169  14.549  16.017  0.00  0.00    +0.150 HD
BRANCH  49  53
ATOM     53  CA  ILE A   3      13.704  12.865  17.820  0.00  0.00    +0.149 C 
BRANCH  53  55
ATOM     54  C   MET A   2      13.199  10.533  17.998  0.00  0.00    +0.241 C 
ATOM     55  N   ILE A   3      14.106  11.493  18.166  0.00  0.00    -0.297 N 
ATOM     56  H   ILE A   3      15.058  11.282  18.527  0.00  0.00    +0.150 HD
ATOM     57  O   MET A   2      12.045  10.680  17.619  0.00  0.00    -0.273 OA
BRANCH  54  58
ATOM     58  CA  MET A   2      13.650   9.111  18.314  0.00  0.00    +0.149 C 
BRANCH  58  61
ATOM     59  C   LYS A   1      12.928   8.251  20.453  0.00  0.00    +0.238 C 
ATOM     60  O   LYS A   1      14.064   8.308  20.918  0.00  0.00    -0.274 OA
ATOM     61  N   MET A   2      12.659   8.531  19.193  0.00  0.00    -0.297 N 
ATOM     62  H   MET A   2      11.709   8.329  18.821  0.00  0.00    +0.150 HD
BRANCH  59  63
ATOM     63  CA  LYS A   1      11.753   7.824  21.327  0.00  0.00    +0.145 C 
BRANCH  63  64
ATOM     64  N   LYS A   1      12.245   6.813  22.250  0.00  0.00    -0.238 NA
ATOM     65  H   LYS A   1      13.246   6.819  22.533  0.00  0.00    +0.142 HD
ENDBRANCH  63  64
BRANCH  63  66
ATOM     66  CB  LYS A   1      11.169   8.995  22.095  0.00  0.00    +0.026 C 
BRANCH  66  67
ATOM     67  CG  LYS A   1      10.447   9.990  21.157  0.00  0.00    -0.000 C 
BRANCH  67  68
ATOM     68  CD  LYS A   1       9.613  10.952  21.973  0.00  0.00    -0.024 C 
BRANCH  68  69
ATOM     69  CE  LYS A   1       9.090  12.053  21.084  0.00  0.00    -0.086 C 
BRANCH  69  70
ATOM     70  NZ  LYS A   1       7.977  11.551  20.233  0.00  0.00    +0.380 N 
ATOM     71  HZ1 LYS A   1       7.204  11.210  20.840  0.00  0.00    -0.089 HD
ATOM     72  HZ2 LYS A   1       8.322  10.771  19.638  0.00  0.00    -0.089 HD
ATOM     73  HZ3 LYS A   1       7.630  12.322  19.628  0.00  0.00    -0.089 HD
ENDBRANCH  69  70
ENDBRANCH  68  69
ENDBRANCH  67  68
ENDBRANCH  66  67
ENDBRANCH  63  66
ENDBRANCH  59  63
ENDBRANCH  58  61
BRANCH  58  74
ATOM     74  CB  MET A   2      13.738   8.353  16.991  0.00  0.00    +0.041 C 
BRANCH  74  75
ATOM     75  CG  MET A   2      14.278   6.933  17.155  0.00  0.00    +0.060 C 
BRANCH  75  76
ATOM     76  SD  MET A   2      15.477   6.705  15.845  0.00  0.00    -0.139 S 
ATOM     77  CE  MET A   2      16.739   7.866  16.325  0.00  0.00    +0.069 C 
ENDBRANCH  75  76
ENDBRANCH  74  75
ENDBRANCH  58  74
ENDBRANCH  54  58
ENDBRANCH  53  55
BRANCH  53  78
ATOM     78  CB  ILE A   3      13.668  13.763  19.053  0.00  0.00    +0.027 C 
ATOM     79  CG2 ILE A   3      12.518  13.290  19.962  0.00  0.00    +0.002 C 
BRANCH  78  80
ATOM     80  CG1 ILE A   3      14.999  13.851  19.795  0.00  0.00    +0.002 C 
ATOM     81  CD1 ILE A   3      14.977  14.830  20.963  0.00  0.00    +0.000 C 
ENDBRANCH  78  80
ENDBRANCH  53  78
ENDBRANCH  49  53
ENDBRANCH  48  51
ENDBRANCH  44  48
ENDBRANCH  43  46
ENDBRANCH   1  43
TORSDOF 36
REMARK  Name = ../refined-set-2016/5bry/5bry_pocket.pdb
REMARK  226 active torsions:
REMARK  status: ('A' for Active; 'I' for Inactive)
REMARK    1  A    between atoms: _1  and  _3
REMARK    2  A    between atoms: _3  and  _4
REMARK    3  A    between atoms: _3  and  _6
REMARK    4  A    between atoms: _6  and  _7
REMARK    5  A    between atoms: _7  and  _8
REMARK    6  A    between atoms: _8  and  _9
REMARK    7  A    between atoms: _18  and  _20
REMARK    8  A    between atoms: _20  and  _21
REMARK    9  A    between atoms: _20  and  _23
REMARK   10  A    between atoms: _23  and  _24
REMARK   11  A    between atoms: _27  and  _29
REMARK   12  A    between atoms: _29  and  _30
REMARK   13  A    between atoms: _29  and  _32
REMARK   14  A    between atoms: _32  and  _33
REMARK   15  A    between atoms: _36  and  _38
REMARK   16  A    between atoms: _38  and  _39
REMARK   17  A    between atoms: _38  and  _41
REMARK   18  A    between atoms: _41  and  _42
REMARK   19  A    between atoms: _45  and  _47
REMARK   20  A    between atoms: _47  and  _48
REMARK   21  A    between atoms: _47  and  _50
REMARK   22  A    between atoms: _50  and  _51
REMARK   23  A    between atoms: _54  and  _56
REMARK   24  A    between atoms: _56  and  _57
REMARK   25  A    between atoms: _59  and  _61
REMARK   26  A    between atoms: _61  and  _62
REMARK   27  A    between atoms: _65  and  _67
REMARK   28  A    between atoms: _67  and  _68
REMARK   29  A    between atoms: _67  and  _70
REMARK   30  A    between atoms: _70  and  _71
REMARK   31  A    between atoms: _74  and  _76
REMARK   32  A    between atoms: _76  and  _77
REMARK   33  A    between atoms: _76  and  _79
REMARK   34  A    between atoms: _79  and  _80
REMARK   35  A    between atoms: _83  and  _85
REMARK   36  A    between atoms: _85  and  _86
REMARK   37  A    between atoms: _85  and  _88
REMARK   38  A    between atoms: _88  and  _89
REMARK   39  A    between atoms: _92  and  _94
REMARK   40  A    between atoms: _94  and  _95
REMARK   41  A    between atoms: _94  and  _97
REMARK   42  A    between atoms: _100  and  _102
REMARK   43  A    between atoms: _102  and  _103
REMARK   44  A    between atoms: _102  and  _105
REMARK   45  A    between atoms: _105  and  _106
REMARK   46  A    between atoms: _106  and  _107
REMARK   47  A    between atoms: _107  and  _108
REMARK   48  A    between atoms: _108  and  _109
REMARK   49  A    between atoms: _113  and  _115
REMARK   50  A    between atoms: _115  and  _116
REMARK   51  A    between atoms: _115  and  _118
REMARK   52  A    between atoms: _118  and  _119
REMARK   53  A    between atoms: _119  and  _120
REMARK   54  A    between atoms: _122  and  _124
REMARK   55  A    between atoms: _124  and  _125
REMARK   56  A    between atoms: _124  and  _127
REMARK   57  A    between atoms: _127  and  _128
REMARK   58  A    between atoms: _131  and  _133
REMARK   59  A    between atoms: _133  and  _134
REMARK   60  A    between atoms: _136  and  _138
REMARK   61  A    between atoms: _138  and  _139
REMARK   62  A    between atoms: _141  and  _143
REMARK   63  A    between atoms: _143  and  _144
REMARK   64  A    between atoms: _143  and  _146
REMARK   65  A    between atoms: _146  and  _147
REMARK   66  A    between atoms: _150  and  _152
REMARK   67  A    between atoms: _152  and  _153
REMARK   68  A    between atoms: _155  and  _157
REMARK   69  A    between atoms: _157  and  _158
REMARK   70  A    between atoms: _160  and  _162
REMARK   71  A    between atoms: _162  and  _163
REMARK   72  A    between atoms: _162  and  _165
REMARK   73  A    between atoms: _165  and  _166
REMARK   74  A    between atoms: _172  and  _174
REMARK   75  A    between atoms: _174  and  _175
REMARK   76  A    between atoms: _174  and  _177
REMARK   77  A    between atoms: _177  and  _178
REMARK   78  A    between atoms: _181  and  _183
REMARK   79  A    between atoms: _183  and  _184
REMARK   80  A    between atoms: _183  and  _186
REMARK   81  A    between atoms: _189  and  _191
REMARK   82  A    between atoms: _191  and  _192
REMARK   83  A    between atoms: _191  and  _194
REMARK   84  A    between atoms: _194  and  _195
REMARK   85  A    between atoms: _199  and  _200
REMARK   86  A    between atoms: _205  and  _207
REMARK   87  A    between atoms: _207  and  _208
REMARK   88  A    between atoms: _207  and  _210
REMARK   89  A    between atoms: _210  and  _211
REMARK   90  A    between atoms: _215  and  _216
REMARK   91  A    between atoms: _221  and  _223
REMARK   92  A    between atoms: _223  and  _224
REMARK   93  A    between atoms: _223  and  _226
REMARK   94  A    between atoms: _229  and  _231
REMARK   95  A    between atoms: _231  and  _232
REMARK   96  A    between atoms: _231  and  _234
REMARK   97  A    between atoms: _234  and  _235
REMARK   98  A    between atoms: _240  and  _242
REMARK   99  A    between atoms: _242  and  _243
REMARK  100  A    between atoms: _242  and  _245
REMARK  101  A    between atoms: _245  and  _246
REMARK  102  A    between atoms: _249  and  _251
REMARK  103  A    between atoms: _251  and  _252
REMARK  104  A    between atoms: _251  and  _254
REMARK  105  A    between atoms: _254  and  _255
REMARK  106  A    between atoms: _258  and  _260
REMARK  107  A    between atoms: _260  and  _261
REMARK  108  A    between atoms: _263  and  _265
REMARK  109  A    between atoms: _265  and  _266
REMARK  110  A    between atoms: _265  and  _268
REMARK  111  A    between atoms: _268  and  _269
REMARK  112  A    between atoms: _269  and  _270
REMARK  113  A    between atoms: _270  and  _271
REMARK  114  A    between atoms: _280  and  _282
REMARK  115  A    between atoms: _282  and  _283
REMARK  116  A    between atoms: _282  and  _285
REMARK  117  A    between atoms: _285  and  _286
REMARK  118  A    between atoms: _291  and  _293
REMARK  119  A    between atoms: _293  and  _294
REMARK  120  A    between atoms: _293  and  _296
REMARK  121  A    between atoms: _296  and  _297
REMARK  122  A    between atoms: _297  and  _298
REMARK  123  A    between atoms: _298  and  _299
REMARK  124  A    between atoms: _308  and  _310
REMARK  125  A    between atoms: _310  and  _311
REMARK  126  A    between atoms: _310  and  _313
REMARK  127  A    between atoms: _313  and  _314
REMARK  128  A    between atoms: _317  and  _319
REMARK  129  A    between atoms: _319  and  _320
REMARK  130  A    between atoms: _319  and  _322
REMARK  131  A    between atoms: _322  and  _323
REMARK  132  A    between atoms: _326  and  _328
REMARK  133  A    between atoms: _328  and  _329
REMARK  134  A    between atoms: _328  and  _331
REMARK  135  A    between atoms: _331  and  _332
REMARK  136  A    between atoms: _335  and  _337
REMARK  137  A    between atoms: _337  and  _338
REMARK  138  A    between atoms: _337  and  _340
REMARK  139  A    between atoms: _340  and  _341
REMARK  140  A    between atoms: _344  and  _346
REMARK  141  A    between atoms: _346  and  _347
REMARK  142  A    between atoms: _349  and  _351
REMARK  143  A    between atoms: _351  and  _352
REMARK  144  A    between atoms: _355  and  _357
REMARK  145  A    between atoms: _357  and  _358
REMARK  146  A    between atoms: _357  and  _360
REMARK  147  A    between atoms: _360  and  _361
REMARK  148  A    between atoms: _364  and  _366
REMARK  149  A    between atoms: _366  and  _367
REMARK  150  A    between atoms: _366  and  _369
REMARK  151  A    between atoms: _369  and  _370
REMARK  152  A    between atoms: _373  and  _375
REMARK  153  A    between atoms: _375  and  _376
REMARK  154  A    between atoms: _375  and  _378
REMARK  155  A    between atoms: _378  and  _379
REMARK  156  A    between atoms: _382  and  _384
REMARK  157  A    between atoms: _384  and  _385
REMARK  158  A    between atoms: _384  and  _387
REMARK  159  A    between atoms: _390  and  _392
REMARK  160  A    between atoms: _392  and  _393
REMARK  161  A    between atoms: _392  and  _395
REMARK  162  A    between atoms: _395  and  _396
REMARK  163  A    between atoms: _396  and  _397
REMARK  164  A    between atoms: _397  and  _398
REMARK  165  A    between atoms: _398  and  _399
REMARK  166  A    between atoms: _403  and  _405
REMARK  167  A    between atoms: _405  and  _406
REMARK  168  A    between atoms: _405  and  _408
REMARK  169  A    between atoms: _408  and  _409
REMARK  170  A    between atoms: _409  and  _410
REMARK  171  A    between atoms: _412  and  _414
REMARK  172  A    between atoms: _414  and  _415
REMARK  173  A    between atoms: _414  and  _417
REMARK  174  A    between atoms: _417  and  _418
REMARK  175  A    between atoms: _421  and  _423
REMARK  176  A    between atoms: _423  and  _424
REMARK  177  A    between atoms: _426  and  _428
REMARK  178  A    between atoms: _428  and  _429
REMARK  179  A    between atoms: _431  and  _433
REMARK  180  A    between atoms: _433  and  _434
REMARK  181  A    between atoms: _433  and  _436
REMARK  182  A    between atoms: _436  and  _437
REMARK  183  A    between atoms: _440  and  _442
REMARK  184  A    between atoms: _442  and  _443
REMARK  185  A    between atoms: _445  and  _447
REMARK  186  A    between atoms: _447  and  _448
REMARK  187  A    between atoms: _450  and  _452
REMARK  188  A    between atoms: _452  and  _453
REMARK  189  A    between atoms: _452  and  _455
REMARK  190  A    between atoms: _455  and  _456
REMARK  191  A    between atoms: _462  and  _464
REMARK  192  A    between atoms: _464  and  _465
REMARK  193  A    between atoms: _464  and  _467
REMARK  194  A    between atoms: _467  and  _468
REMARK  195  A    between atoms: _471  and  _473
REMARK  196  A    between atoms: _473  and  _474
REMARK  197  A    between atoms: _473  and  _476
REMARK  198  A    between atoms: _476  and  _477
REMARK  199  A    between atoms: _480  and  _482
REMARK  200  A    between atoms: _482  and  _483
REMARK  201  A    between atoms: _482  and  _485
REMARK  202  A    between atoms: _485  and  _486
REMARK  203  A    between atoms: _490  and  _491
REMARK  204  A    between atoms: _496  and  _498
REMARK  205  A    between atoms: _498  and  _499
REMARK  206  A    between atoms: _498  and  _501
REMARK  207  A    between atoms: _504  and  _506
REMARK  208  A    between atoms: _506  and  _507
REMARK  209  A    between atoms: _506  and  _509
REMARK  210  A    between atoms: _509  and  _510
REMARK  211  A    between atoms: _515  and  _517
REMARK  212  A    between atoms: _517  and  _518
REMARK  213  A    between atoms: _517  and  _520
REMARK  214  A    between atoms: _520  and  _521
REMARK  215  A    between atoms: _524  and  _526
REMARK  216  A    between atoms: _526  and  _527
REMARK  217  A    between atoms: _529  and  _531
REMARK  218  A    between atoms: _531  and  _532
REMARK  219  A    between atoms: _531  and  _534
REMARK  220  A    between atoms: _534  and  _535
REMARK  221  A    between atoms: _535  and  _536
REMARK  222  A    between atoms: _536  and  _537
REMARK  223  A    between atoms: _546  and  _548
REMARK  224  A    between atoms: _548  and  _549
REMARK  225  A    between atoms: _548  and  _551
REMARK  226  A    between atoms: _551  and  _552
REMARK                            x       y       z     vdW  Elec       q    Type
REMARK                         _______ _______ _______ _____ _____    ______ ____
ROOT
ATOM      1  CA  LEU A   1      13.374  13.302  27.175  0.00  0.00    +0.133 C 
ENDROOT
BRANCH   1   2
ATOM      2  N   LEU A   1      12.489  14.197  27.965  0.00  0.00    -0.239 NA
ATOM      3  H   LEU A   1      12.355  15.186  27.674  0.00  0.00    +0.142 HD
ENDBRANCH   1   2
BRANCH   1   4
ATOM      4  C   LEU A   1      14.809  13.487  27.591  0.00  0.00    +0.224 C 
ATOM      5  O   LEU A   1      15.260  14.628  27.720  0.00  0.00    -0.287 OA
ENDBRANCH   1   4
BRANCH   1   6
ATOM      6  CB  LEU A   1      13.220  13.602  25.680  0.00  0.00    +0.025 C 
BRANCH   6   7
ATOM      7  CG  LEU A   1      11.763  13.644  25.171  0.00  0.00    +0.002 C 
ATOM      8  CD2 LEU A   1      11.005  12.352  25.460  0.00  0.00    +0.000 C 
ATOM      9  CD1 LEU A   1      11.793  13.972  23.669  0.00  0.00    +0.000 C 
ENDBRANCH   6   7
ENDBRANCH   1   6
TORSDOF 4
REMARK  Name = ../refined-set-2016/5bry/5bry_pocket.pdb
REMARK  226 active torsions:
REMARK  status: ('A' for Active; 'I' for Inactive)
REMARK    1  A    between atoms: _1  and  _3
REMARK    2  A    between atoms: _3  and  _4
REMARK    3  A    between atoms: _3  and  _6
REMARK    4  A    between atoms: _6  and  _7
REMARK    5  A    between atoms: _7  and  _8
REMARK    6  A    between atoms: _8  and  _9
REMARK    7  A    between atoms: _18  and  _20
REMARK    8  A    between atoms: _20  and  _21
REMARK    9  A    between atoms: _20  and  _23
REMARK   10  A    between atoms: _23  and  _24
REMARK   11  A    between atoms: _27  and  _29
REMARK   12  A    between atoms: _29  and  _30
REMARK   13  A    between atoms: _29  and  _32
REMARK   14  A    between atoms: _32  and  _33
REMARK   15  A    between atoms: _36  and  _38
REMARK   16  A    between atoms: _38  and  _39
REMARK   17  A    between atoms: _38  and  _41
REMARK   18  A    between atoms: _41  and  _42
REMARK   19  A    between atoms: _45  and  _47
REMARK   20  A    between atoms: _47  and  _48
REMARK   21  A    between atoms: _47  and  _50
REMARK   22  A    between atoms: _50  and  _51
REMARK   23  A    between atoms: _54  and  _56
REMARK   24  A    between atoms: _56  and  _57
REMARK   25  A    between atoms: _59  and  _61
REMARK   26  A    between atoms: _61  and  _62
REMARK   27  A    between atoms: _65  and  _67
REMARK   28  A    between atoms: _67  and  _68
REMARK   29  A    between atoms: _67  and  _70
REMARK   30  A    between atoms: _70  and  _71
REMARK   31  A    between atoms: _74  and  _76
REMARK   32  A    between atoms: _76  and  _77
REMARK   33  A    between atoms: _76  and  _79
REMARK   34  A    between atoms: _79  and  _80
REMARK   35  A    between atoms: _83  and  _85
REMARK   36  A    between atoms: _85  and  _86
REMARK   37  A    between atoms: _85  and  _88
REMARK   38  A    between atoms: _88  and  _89
REMARK   39  A    between atoms: _92  and  _94
REMARK   40  A    between atoms: _94  and  _95
REMARK   41  A    between atoms: _94  and  _97
REMARK   42  A    between atoms: _100  and  _102
REMARK   43  A    between atoms: _102  and  _103
REMARK   44  A    between atoms: _102  and  _105
REMARK   45  A    between atoms: _105  and  _106
REMARK   46  A    between atoms: _106  and  _107
REMARK   47  A    between atoms: _107  and  _108
REMARK   48  A    between atoms: _108  and  _109
REMARK   49  A    between atoms: _113  and  _115
REMARK   50  A    between atoms: _115  and  _116
REMARK   51  A    between atoms: _115  and  _118
REMARK   52  A    between atoms: _118  and  _119
REMARK   53  A    between atoms: _119  and  _120
REMARK   54  A    between atoms: _122  and  _124
REMARK   55  A    between atoms: _124  and  _125
REMARK   56  A    between atoms: _124  and  _127
REMARK   57  A    between atoms: _127  and  _128
REMARK   58  A    between atoms: _131  and  _133
REMARK   59  A    between atoms: _133  and  _134
REMARK   60  A    between atoms: _136  and  _138
REMARK   61  A    between atoms: _138  and  _139
REMARK   62  A    between atoms: _141  and  _143
REMARK   63  A    between atoms: _143  and  _144
REMARK   64  A    between atoms: _143  and  _146
REMARK   65  A    between atoms: _146  and  _147
REMARK   66  A    between atoms: _150  and  _152
REMARK   67  A    between atoms: _152  and  _153
REMARK   68  A    between atoms: _155  and  _157
REMARK   69  A    between atoms: _157  and  _158
REMARK   70  A    between atoms: _160  and  _162
REMARK   71  A    between atoms: _162  and  _163
REMARK   72  A    between atoms: _162  and  _165
REMARK   73  A    between atoms: _165  and  _166
REMARK   74  A    between atoms: _172  and  _174
REMARK   75  A    between atoms: _174  and  _175
REMARK   76  A    between atoms: _174  and  _177
REMARK   77  A    between atoms: _177  and  _178
REMARK   78  A    between atoms: _181  and  _183
REMARK   79  A    between atoms: _183  and  _184
REMARK   80  A    between atoms: _183  and  _186
REMARK   81  A    between atoms: _189  and  _191
REMARK   82  A    between atoms: _191  and  _192
REMARK   83  A    between atoms: _191  and  _194
REMARK   84  A    between atoms: _194  and  _195
REMARK   85  A    between atoms: _199  and  _200
REMARK   86  A    between atoms: _205  and  _207
REMARK   87  A    between atoms: _207  and  _208
REMARK   88  A    between atoms: _207  and  _210
REMARK   89  A    between atoms: _210  and  _211
REMARK   90  A    between atoms: _215  and  _216
REMARK   91  A    between atoms: _221  and  _223
REMARK   92  A    between atoms: _223  and  _224
REMARK   93  A    between atoms: _223  and  _226
REMARK   94  A    between atoms: _229  and  _231
REMARK   95  A    between atoms: _231  and  _232
REMARK   96  A    between atoms: _231  and  _234
REMARK   97  A    between atoms: _234  and  _235
REMARK   98  A    between atoms: _240  and  _242
REMARK   99  A    between atoms: _242  and  _243
REMARK  100  A    between atoms: _242  and  _245
REMARK  101  A    between atoms: _245  and  _246
REMARK  102  A    between atoms: _249  and  _251
REMARK  103  A    between atoms: _251  and  _252
REMARK  104  A    between atoms: _251  and  _254
REMARK  105  A    between atoms: _254  and  _255
REMARK  106  A    between atoms: _258  and  _260
REMARK  107  A    between atoms: _260  and  _261
REMARK  108  A    between atoms: _263  and  _265
REMARK  109  A    between atoms: _265  and  _266
REMARK  110  A    between atoms: _265  and  _268
REMARK  111  A    between atoms: _268  and  _269
REMARK  112  A    between atoms: _269  and  _270
REMARK  113  A    between atoms: _270  and  _271
REMARK  114  A    between atoms: _280  and  _282
REMARK  115  A    between atoms: _282  and  _283
REMARK  116  A    between atoms: _282  and  _285
REMARK  117  A    between atoms: _285  and  _286
REMARK  118  A    between atoms: _291  and  _293
REMARK  119  A    between atoms: _293  and  _294
REMARK  120  A    between atoms: _293  and  _296
REMARK  121  A    between atoms: _296  and  _297
REMARK  122  A    between atoms: _297  and  _298
REMARK  123  A    between atoms: _298  and  _299
REMARK  124  A    between atoms: _308  and  _310
REMARK  125  A    between atoms: _310  and  _311
REMARK  126  A    between atoms: _310  and  _313
REMARK  127  A    between atoms: _313  and  _314
REMARK  128  A    between atoms: _317  and  _319
REMARK  129  A    between atoms: _319  and  _320
REMARK  130  A    between atoms: _319  and  _322
REMARK  131  A    between atoms: _322  and  _323
REMARK  132  A    between atoms: _326  and  _328
REMARK  133  A    between atoms: _328  and  _329
REMARK  134  A    between atoms: _328  and  _331
REMARK  135  A    between atoms: _331  and  _332
REMARK  136  A    between atoms: _335  and  _337
REMARK  137  A    between atoms: _337  and  _338
REMARK  138  A    between atoms: _337  and  _340
REMARK  139  A    between atoms: _340  and  _341
REMARK  140  A    between atoms: _344  and  _346
REMARK  141  A    between atoms: _346  and  _347
REMARK  142  A    between atoms: _349  and  _351
REMARK  143  A    between atoms: _351  and  _352
REMARK  144  A    between atoms: _355  and  _357
REMARK  145  A    between atoms: _357  and  _358
REMARK  146  A    between atoms: _357  and  _360
REMARK  147  A    between atoms: _360  and  _361
REMARK  148  A    between atoms: _364  and  _366
REMARK  149  A    between atoms: _366  and  _367
REMARK  150  A    between atoms: _366  and  _369
REMARK  151  A    between atoms: _369  and  _370
REMARK  152  A    between atoms: _373  and  _375
REMARK  153  A    between atoms: _375  and  _376
REMARK  154  A    between atoms: _375  and  _378
REMARK  155  A    between atoms: _378  and  _379
REMARK  156  A    between atoms: _382  and  _384
REMARK  157  A    between atoms: _384  and  _385
REMARK  158  A    between atoms: _384  and  _387
REMARK  159  A    between atoms: _390  and  _392
REMARK  160  A    between atoms: _392  and  _393
REMARK  161  A    between atoms: _392  and  _395
REMARK  162  A    between atoms: _395  and  _396
REMARK  163  A    between atoms: _396  and  _397
REMARK  164  A    between atoms: _397  and  _398
REMARK  165  A    between atoms: _398  and  _399
REMARK  166  A    between atoms: _403  and  _405
REMARK  167  A    between atoms: _405  and  _406
REMARK  168  A    between atoms: _405  and  _408
REMARK  169  A    between atoms: _408  and  _409
REMARK  170  A    between atoms: _409  and  _410
REMARK  171  A    between atoms: _412  and  _414
REMARK  172  A    between atoms: _414  and  _415
REMARK  173  A    between atoms: _414  and  _417
REMARK  174  A    between atoms: _417  and  _418
REMARK  175  A    between atoms: _421  and  _423
REMARK  176  A    between atoms: _423  and  _424
REMARK  177  A    between atoms: _426  and  _428
REMARK  178  A    between atoms: _428  and  _429
REMARK  179  A    between atoms: _431  and  _433
REMARK  180  A    between atoms: _433  and  _434
REMARK  181  A    between atoms: _433  and  _436
REMARK  182  A    between atoms: _436  and  _437
REMARK  183  A    between atoms: _440  and  _442
REMARK  184  A    between atoms: _442  and  _443
REMARK  185  A    between atoms: _445  and  _447
REMARK  186  A    between atoms: _447  and  _448
REMARK  187  A    between atoms: _450  and  _452
REMARK  188  A    between atoms: _452  and  _453
REMARK  189  A    between atoms: _452  and  _455
REMARK  190  A    between atoms: _455  and  _456
REMARK  191  A    between atoms: _462  and  _464
REMARK  192  A    between atoms: _464  and  _465
REMARK  193  A    between atoms: _464  and  _467
REMARK  194  A    between atoms: _467  and  _468
REMARK  195  A    between atoms: _471  and  _473
REMARK  196  A    between atoms: _473  and  _474
REMARK  197  A    between atoms: _473  and  _476
REMARK  198  A    between atoms: _476  and  _477
REMARK  199  A    between atoms: _480  and  _482
REMARK  200  A    between atoms: _482  and  _483
REMARK  201  A    between atoms: _482  and  _485
REMARK  202  A    between atoms: _485  and  _486
REMARK  203  A    between atoms: _490  and  _491
REMARK  204  A    between atoms: _496  and  _498
REMARK  205  A    between atoms: _498  and  _499
REMARK  206  A    between atoms: _498  and  _501
REMARK  207  A    between atoms: _504  and  _506
REMARK  208  A    between atoms: _506  and  _507
REMARK  209  A    between atoms: _506  and  _509
REMARK  210  A    between atoms: _509  and  _510
REMARK  211  A    between atoms: _515  and  _517
REMARK  212  A    between atoms: _517  and  _518
REMARK  213  A    between atoms: _517  and  _520
REMARK  214  A    between atoms: _520  and  _521
REMARK  215  A    between atoms: _524  and  _526
REMARK  216  A    between atoms: _526  and  _527
REMARK  217  A    between atoms: _529  and  _531
REMARK  218  A    between atoms: _531  and  _532
REMARK  219  A    between atoms: _531  and  _534
REMARK  220  A    between atoms: _534  and  _535
REMARK  221  A    between atoms: _535  and  _536
REMARK  222  A    between atoms: _536  and  _537
REMARK  223  A    between atoms: _546  and  _548
REMARK  224  A    between atoms: _548  and  _549
REMARK  225  A    between atoms: _548  and  _551
REMARK  226  A    between atoms: _551  and  _552
REMARK                            x       y       z     vdW  Elec       q    Type
REMARK                         _______ _______ _______ _____ _____    ______ ____
ROOT
ATOM      1  CA  VAL A   3      21.871  21.964  25.521  0.00  0.00    +0.149 C 
ENDROOT
BRANCH   1   4
ATOM      2  C   PRO A   2      23.581  20.780  24.241  0.00  0.00    +0.245 C 
ATOM      3  O   PRO A   2      24.503  21.392  24.794  0.00  0.00    -0.273 OA
ATOM      4  N   VAL A   3      22.285  21.004  24.495  0.00  0.00    -0.297 N 
ATOM      5  H   VAL A   3      21.561  20.488  23.955  0.00  0.00    +0.150 HD
BRANCH   2   9
ATOM      6  C   THR A   1      22.471  17.874  23.698  0.00  0.00    +0.244 C 
ATOM      7  O   THR A   1      23.098  17.758  24.755  0.00  0.00    -0.273 OA
ATOM      8  N   PRO A   2      22.857  18.821  22.842  0.00  0.00    -0.264 N 
ATOM      9  CA  PRO A   2      23.917  19.744  23.175  0.00  0.00    +0.175 C 
ATOM     10  CB  PRO A   2      24.123  20.545  21.885  0.00  0.00    -0.000 C 
ATOM     11  CG  PRO A   2      23.161  20.029  20.897  0.00  0.00    -0.007 C 
ATOM     12  CD  PRO A   2      22.302  18.973  21.482  0.00  0.00    +0.120 C 
BRANCH   6  13
ATOM     13  CA  THR A   1      21.291  16.965  23.379  0.00  0.00    +0.172 C 
BRANCH  13  14
ATOM     14  CB  THR A   1      19.962  17.537  23.913  0.00  0.00    +0.135 C 
ATOM     15  CG2 THR A   1      19.940  17.603  25.432  0.00  0.00    +0.034 C 
BRANCH  14  16
ATOM     16  OG1 THR A   1      19.810  18.865  23.411  0.00  0.00    -0.383 OA
ATOM     17  HG1 THR A   1      20.568  19.422  23.720  0.00  0.00    +0.210 HD
ENDBRANCH  14  16
ENDBRANCH  13  14
BRANCH  13  18
ATOM     18  N   THR A   1      21.531  15.635  23.943  0.00  0.00    -0.236 NA
ATOM     19  H   THR A   1      21.055  15.328  24.815  0.00  0.00    +0.142 HD
ENDBRANCH  13  18
ENDBRANCH   6  13
ENDBRANCH   2   9
ENDBRANCH   1   4
BRANCH   1  20
ATOM     20  C   VAL A   3      20.533  21.488  26.083  0.00  0.00    +0.241 C 
ATOM     21  N   ASN A   4      20.279  21.881  27.330  0.00  0.00    -0.297 N 
ATOM     22  H   ASN A   4      20.970  22.420  27.890  0.00  0.00    +0.150 HD
ATOM     23  O   VAL A   3      19.804  20.775  25.371  0.00  0.00    -0.273 OA
BRANCH  21  24
ATOM     24  CA  ASN A   4      18.973  21.509  27.862  0.00  0.00    +0.158 C 
BRANCH  24  25
ATOM     25  C   ASN A   4      17.909  22.402  27.241  0.00  0.00    +0.241 C 
ATOM     26  O   ASN A   4      18.077  23.630  27.201  0.00  0.00    -0.273 OA
ATOM     27  N   ILE A   5      16.818  21.827  26.735  0.00  0.00    -0.298 N 
ATOM     28  H   ILE A   5      16.706  20.798  26.836  0.00  0.00    +0.150 HD
BRANCH  27  29
ATOM     29  CA  ILE A   5      15.777  22.576  26.047  0.00  0.00    +0.137 C 
BRANCH  29  30
ATOM     30  CB  ILE A   5      15.697  22.065  24.587  0.00  0.00    +0.026 C 
ATOM     31  CG2 ILE A   5      14.390  22.455  23.914  0.00  0.00    +0.002 C 
BRANCH  30  32
ATOM     32  CG1 ILE A   5      16.899  22.458  23.722  0.00  0.00    +0.002 C 
ATOM     33  CD1 ILE A   5      17.226  21.335  22.757  0.00  0.00    +0.000 C 
ENDBRANCH  30  32
ENDBRANCH  29  30
BRANCH  29  34
ATOM     34  C   ILE A   5      14.410  22.385  26.679  0.00  0.00    +0.227 C 
ATOM     35  O   ILE A   5      14.037  21.223  26.890  0.00  0.00    -0.286 OA
ENDBRANCH  29  34
ENDBRANCH  27  29
ENDBRANCH  24  25
BRANCH  24  36
ATOM     36  CB  ASN A   4      18.978  21.678  29.380  0.00  0.00    +0.114 C 
BRANCH  36  37
ATOM     37  CG  ASN A   4      19.980  20.801  30.104  0.00  0.00    +0.222 C 
ATOM     38  ND2 ASN A   4      20.647  21.317  31.127  0.00  0.00    -0.329 N 
ATOM     39 HD21 ASN A   4      21.323  20.730  31.657  0.00  0.00    +0.145 HD
ATOM     40 HD22 ASN A   4      20.495  22.309  31.400  0.00  0.00    +0.145 HD
ATOM     41  OD1 ASN A   4      20.098  19.637  29.712  0.00  0.00    -0.275 OA
ENDBRANCH  36  37
ENDBRANCH  24  36
ENDBRANCH  21  24
ENDBRANCH   1  20
BRANCH   1  42
ATOM     42  CB  VAL A   3      21.761  23.404  25.032  0.00  0.00    +0.027 C 
ATOM     43  CG2 VAL A   3      23.118  24.012  24.678  0.00  0.00    +0.002 C 
ATOM     44  CG1 VAL A   3      20.832  23.486  23.835  0.00  0.00    +0.002 C 
ENDBRANCH   1  42
TORSDOF 16
REMARK  Name = ../refined-set-2016/5bry/5bry_pocket.pdb
REMARK  226 active torsions:
REMARK  status: ('A' for Active; 'I' for Inactive)
REMARK    1  A    between atoms: _1  and  _3
REMARK    2  A    between atoms: _3  and  _4
REMARK    3  A    between atoms: _3  and  _6
REMARK    4  A    between atoms: _6  and  _7
REMARK    5  A    between atoms: _7  and  _8
REMARK    6  A    between atoms: _8  and  _9
REMARK    7  A    between atoms: _18  and  _20
REMARK    8  A    between atoms: _20  and  _21
REMARK    9  A    between atoms: _20  and  _23
REMARK   10  A    between atoms: _23  and  _24
REMARK   11  A    between atoms: _27  and  _29
REMARK   12  A    between atoms: _29  and  _30
REMARK   13  A    between atoms: _29  and  _32
REMARK   14  A    between atoms: _32  and  _33
REMARK   15  A    between atoms: _36  and  _38
REMARK   16  A    between atoms: _38  and  _39
REMARK   17  A    between atoms: _38  and  _41
REMARK   18  A    between atoms: _41  and  _42
REMARK   19  A    between atoms: _45  and  _47
REMARK   20  A    between atoms: _47  and  _48
REMARK   21  A    between atoms: _47  and  _50
REMARK   22  A    between atoms: _50  and  _51
REMARK   23  A    between atoms: _54  and  _56
REMARK   24  A    between atoms: _56  and  _57
REMARK   25  A    between atoms: _59  and  _61
REMARK   26  A    between atoms: _61  and  _62
REMARK   27  A    between atoms: _65  and  _67
REMARK   28  A    between atoms: _67  and  _68
REMARK   29  A    between atoms: _67  and  _70
REMARK   30  A    between atoms: _70  and  _71
REMARK   31  A    between atoms: _74  and  _76
REMARK   32  A    between atoms: _76  and  _77
REMARK   33  A    between atoms: _76  and  _79
REMARK   34  A    between atoms: _79  and  _80
REMARK   35  A    between atoms: _83  and  _85
REMARK   36  A    between atoms: _85  and  _86
REMARK   37  A    between atoms: _85  and  _88
REMARK   38  A    between atoms: _88  and  _89
REMARK   39  A    between atoms: _92  and  _94
REMARK   40  A    between atoms: _94  and  _95
REMARK   41  A    between atoms: _94  and  _97
REMARK   42  A    between atoms: _100  and  _102
REMARK   43  A    between atoms: _102  and  _103
REMARK   44  A    between atoms: _102  and  _105
REMARK   45  A    between atoms: _105  and  _106
REMARK   46  A    between atoms: _106  and  _107
REMARK   47  A    between atoms: _107  and  _108
REMARK   48  A    between atoms: _108  and  _109
REMARK   49  A    between atoms: _113  and  _115
REMARK   50  A    between atoms: _115  and  _116
REMARK   51  A    between atoms: _115  and  _118
REMARK   52  A    between atoms: _118  and  _119
REMARK   53  A    between atoms: _119  and  _120
REMARK   54  A    between atoms: _122  and  _124
REMARK   55  A    between atoms: _124  and  _125
REMARK   56  A    between atoms: _124  and  _127
REMARK   57  A    between atoms: _127  and  _128
REMARK   58  A    between atoms: _131  and  _133
REMARK   59  A    between atoms: _133  and  _134
REMARK   60  A    between atoms: _136  and  _138
REMARK   61  A    between atoms: _138  and  _139
REMARK   62  A    between atoms: _141  and  _143
REMARK   63  A    between atoms: _143  and  _144
REMARK   64  A    between atoms: _143  and  _146
REMARK   65  A    between atoms: _146  and  _147
REMARK   66  A    between atoms: _150  and  _152
REMARK   67  A    between atoms: _152  and  _153
REMARK   68  A    between atoms: _155  and  _157
REMARK   69  A    between atoms: _157  and  _158
REMARK   70  A    between atoms: _160  and  _162
REMARK   71  A    between atoms: _162  and  _163
REMARK   72  A    between atoms: _162  and  _165
REMARK   73  A    between atoms: _165  and  _166
REMARK   74  A    between atoms: _172  and  _174
REMARK   75  A    between atoms: _174  and  _175
REMARK   76  A    between atoms: _174  and  _177
REMARK   77  A    between atoms: _177  and  _178
REMARK   78  A    between atoms: _181  and  _183
REMARK   79  A    between atoms: _183  and  _184
REMARK   80  A    between atoms: _183  and  _186
REMARK   81  A    between atoms: _189  and  _191
REMARK   82  A    between atoms: _191  and  _192
REMARK   83  A    between atoms: _191  and  _194
REMARK   84  A    between atoms: _194  and  _195
REMARK   85  A    between atoms: _199  and  _200
REMARK   86  A    between atoms: _205  and  _207
REMARK   87  A    between atoms: _207  and  _208
REMARK   88  A    between atoms: _207  and  _210
REMARK   89  A    between atoms: _210  and  _211
REMARK   90  A    between atoms: _215  and  _216
REMARK   91  A    between atoms: _221  and  _223
REMARK   92  A    between atoms: _223  and  _224
REMARK   93  A    between atoms: _223  and  _226
REMARK   94  A    between atoms: _229  and  _231
REMARK   95  A    between atoms: _231  and  _232
REMARK   96  A    between atoms: _231  and  _234
REMARK   97  A    between atoms: _234  and  _235
REMARK   98  A    between atoms: _240  and  _242
REMARK   99  A    between atoms: _242  and  _243
REMARK  100  A    between atoms: _242  and  _245
REMARK  101  A    between atoms: _245  and  _246
REMARK  102  A    between atoms: _249  and  _251
REMARK  103  A    between atoms: _251  and  _252
REMARK  104  A    between atoms: _251  and  _254
REMARK  105  A    between atoms: _254  and  _255
REMARK  106  A    between atoms: _258  and  _260
REMARK  107  A    between atoms: _260  and  _261
REMARK  108  A    between atoms: _263  and  _265
REMARK  109  A    between atoms: _265  and  _266
REMARK  110  A    between atoms: _265  and  _268
REMARK  111  A    between atoms: _268  and  _269
REMARK  112  A    between atoms: _269  and  _270
REMARK  113  A    between atoms: _270  and  _271
REMARK  114  A    between atoms: _280  and  _282
REMARK  115  A    between atoms: _282  and  _283
REMARK  116  A    between atoms: _282  and  _285
REMARK  117  A    between atoms: _285  and  _286
REMARK  118  A    between atoms: _291  and  _293
REMARK  119  A    between atoms: _293  and  _294
REMARK  120  A    between atoms: _293  and  _296
REMARK  121  A    between atoms: _296  and  _297
REMARK  122  A    between atoms: _297  and  _298
REMARK  123  A    between atoms: _298  and  _299
REMARK  124  A    between atoms: _308  and  _310
REMARK  125  A    between atoms: _310  and  _311
REMARK  126  A    between atoms: _310  and  _313
REMARK  127  A    between atoms: _313  and  _314
REMARK  128  A    between atoms: _317  and  _319
REMARK  129  A    between atoms: _319  and  _320
REMARK  130  A    between atoms: _319  and  _322
REMARK  131  A    between atoms: _322  and  _323
REMARK  132  A    between atoms: _326  and  _328
REMARK  133  A    between atoms: _328  and  _329
REMARK  134  A    between atoms: _328  and  _331
REMARK  135  A    between atoms: _331  and  _332
REMARK  136  A    between atoms: _335  and  _337
REMARK  137  A    between atoms: _337  and  _338
REMARK  138  A    between atoms: _337  and  _340
REMARK  139  A    between atoms: _340  and  _341
REMARK  140  A    between atoms: _344  and  _346
REMARK  141  A    between atoms: _346  and  _347
REMARK  142  A    between atoms: _349  and  _351
REMARK  143  A    between atoms: _351  and  _352
REMARK  144  A    between atoms: _355  and  _357
REMARK  145  A    between atoms: _357  and  _358
REMARK  146  A    between atoms: _357  and  _360
REMARK  147  A    between atoms: _360  and  _361
REMARK  148  A    between atoms: _364  and  _366
REMARK  149  A    between atoms: _366  and  _367
REMARK  150  A    between atoms: _366  and  _369
REMARK  151  A    between atoms: _369  and  _370
REMARK  152  A    between atoms: _373  and  _375
REMARK  153  A    between atoms: _375  and  _376
REMARK  154  A    between atoms: _375  and  _378
REMARK  155  A    between atoms: _378  and  _379
REMARK  156  A    between atoms: _382  and  _384
REMARK  157  A    between atoms: _384  and  _385
REMARK  158  A    between atoms: _384  and  _387
REMARK  159  A    between atoms: _390  and  _392
REMARK  160  A    between atoms: _392  and  _393
REMARK  161  A    between atoms: _392  and  _395
REMARK  162  A    between atoms: _395  and  _396
REMARK  163  A    between atoms: _396  and  _397
REMARK  164  A    between atoms: _397  and  _398
REMARK  165  A    between atoms: _398  and  _399
REMARK  166  A    between atoms: _403  and  _405
REMARK  167  A    between atoms: _405  and  _406
REMARK  168  A    between atoms: _405  and  _408
REMARK  169  A    between atoms: _408  and  _409
REMARK  170  A    between atoms: _409  and  _410
REMARK  171  A    between atoms: _412  and  _414
REMARK  172  A    between atoms: _414  and  _415
REMARK  173  A    between atoms: _414  and  _417
REMARK  174  A    between atoms: _417  and  _418
REMARK  175  A    between atoms: _421  and  _423
REMARK  176  A    between atoms: _423  and  _424
REMARK  177  A    between atoms: _426  and  _428
REMARK  178  A    between atoms: _428  and  _429
REMARK  179  A    between atoms: _431  and  _433
REMARK  180  A    between atoms: _433  and  _434
REMARK  181  A    between atoms: _433  and  _436
REMARK  182  A    between atoms: _436  and  _437
REMARK  183  A    between atoms: _440  and  _442
REMARK  184  A    between atoms: _442  and  _443
REMARK  185  A    between atoms: _445  and  _447
REMARK  186  A    between atoms: _447  and  _448
REMARK  187  A    between atoms: _450  and  _452
REMARK  188  A    between atoms: _452  and  _453
REMARK  189  A    between atoms: _452  and  _455
REMARK  190  A    between atoms: _455  and  _456
REMARK  191  A    between atoms: _462  and  _464
REMARK  192  A    between atoms: _464  and  _465
REMARK  193  A    between atoms: _464  and  _467
REMARK  194  A    between atoms: _467  and  _468
REMARK  195  A    between atoms: _471  and  _473
REMARK  196  A    between atoms: _473  and  _474
REMARK  197  A    between atoms: _473  and  _476
REMARK  198  A    between atoms: _476  and  _477
REMARK  199  A    between atoms: _480  and  _482
REMARK  200  A    between atoms: _482  and  _483
REMARK  201  A    between atoms: _482  and  _485
REMARK  202  A    between atoms: _485  and  _486
REMARK  203  A    between atoms: _490  and  _491
REMARK  204  A    between atoms: _496  and  _498
REMARK  205  A    between atoms: _498  and  _499
REMARK  206  A    between atoms: _498  and  _501
REMARK  207  A    between atoms: _504  and  _506
REMARK  208  A    between atoms: _506  and  _507
REMARK  209  A    between atoms: _506  and  _509
REMARK  210  A    between atoms: _509  and  _510
REMARK  211  A    between atoms: _515  and  _517
REMARK  212  A    between atoms: _517  and  _518
REMARK  213  A    between atoms: _517  and  _520
REMARK  214  A    between atoms: _520  and  _521
REMARK  215  A    between atoms: _524  and  _526
REMARK  216  A    between atoms: _526  and  _527
REMARK  217  A    between atoms: _529  and  _531
REMARK  218  A    between atoms: _531  and  _532
REMARK  219  A    between atoms: _531  and  _534
REMARK  220  A    between atoms: _534  and  _535
REMARK  221  A    between atoms: _535  and  _536
REMARK  222  A    between atoms: _536  and  _537
REMARK  223  A    between atoms: _546  and  _548
REMARK  224  A    between atoms: _548  and  _549
REMARK  225  A    between atoms: _548  and  _551
REMARK  226  A    between atoms: _551  and  _552
REMARK                            x       y       z     vdW  Elec       q    Type
REMARK                         _______ _______ _______ _____ _____    ______ ____
ROOT
ATOM      1  CA  ARG A   2       6.218  23.448  24.091  0.00  0.00    +0.149 C 
ENDROOT
BRANCH   1   4
ATOM      2  C   GLY A   1       8.411  22.935  24.970  0.00  0.00    +0.240 C 
ATOM      3  O   GLY A   1       8.039  23.184  26.136  0.00  0.00    -0.274 OA
ATOM      4  N   ARG A   2       7.583  22.938  23.914  0.00  0.00    -0.297 N 
ATOM      5  H   ARG A   2       7.902  22.586  22.989  0.00  0.00    +0.150 HD
BRANCH   2   6
ATOM      6  CA  GLY A   1       9.850  22.624  24.665  0.00  0.00    +0.169 C 
BRANCH   6   7
ATOM      7  N   GLY A   1      10.698  22.571  25.839  0.00  0.00    -0.236 NA
ATOM      8  H   GLY A   1      10.749  21.682  26.377  0.00  0.00    +0.142 HD
ENDBRANCH   6   7
ENDBRANCH   2   6
ENDBRANCH   1   4
BRANCH   1   9
ATOM      9  C   ARG A   2       5.410  22.617  25.068  0.00  0.00    +0.241 C 
ATOM     10  O   ARG A   2       4.477  23.151  25.723  0.00  0.00    -0.273 OA
ATOM     11  N   ASN A   3       5.760  21.321  25.242  0.00  0.00    -0.298 N 
ATOM     12  H   ASN A   3       6.568  20.913  24.729  0.00  0.00    +0.150 HD
BRANCH  11  13
ATOM     13  CA  ASN A   3       4.964  20.499  26.180  0.00  0.00    +0.146 C 
BRANCH  13  14
ATOM     14  C   ASN A   3       5.004  21.094  27.583  0.00  0.00    +0.227 C 
ATOM     15  O   ASN A   3       4.015  20.961  28.323  0.00  0.00    -0.286 OA
ENDBRANCH  13  14
BRANCH  13  16
ATOM     16  CB  ASN A   3       5.442  19.048  26.158  0.00  0.00    +0.112 C 
BRANCH  16  17
ATOM     17  CG  ASN A   3       6.773  18.841  26.861  0.00  0.00    +0.222 C 
ATOM     18  ND2 ASN A   3       6.761  17.886  27.803  0.00  0.00    -0.329 N 
ATOM     19 HD21 ASN A   3       7.638  17.640  28.305  0.00  0.00    +0.145 HD
ATOM     20 HD22 ASN A   3       5.875  17.392  28.031  0.00  0.00    +0.145 HD
ATOM     21  OD1 ASN A   3       7.761  19.502  26.497  0.00  0.00    -0.275 OA
ENDBRANCH  16  17
ENDBRANCH  13  16
ENDBRANCH  11  13
ENDBRANCH   1   9
BRANCH   1  22
ATOM     22  CB  ARG A   2       5.502  23.499  22.728  0.00  0.00    +0.033 C 
BRANCH  22  23
ATOM     23  CG  ARG A   2       6.096  24.546  21.814  0.00  0.00    +0.045 C 
BRANCH  23  24
ATOM     24  CD  ARG A   2       5.274  24.763  20.509  0.00  0.00    +0.174 C 
BRANCH  24  25
ATOM     25  NE  ARG A   2       5.336  23.530  19.694  0.00  0.00    -0.265 N 
ATOM     26  CZ  ARG A   2       4.345  22.625  19.696  0.00  0.00    +0.342 C 
ATOM     27  NH2 ARG A   2       3.215  22.747  20.409  0.00  0.00    -0.292 N 
ATOM     28 HH21 ARG A   2       3.066  23.584  21.008  0.00  0.00    +0.255 HD
ATOM     29 HH22 ARG A   2       2.488  22.005  20.362  0.00  0.00    +0.255 HD
ATOM     30  NH1 ARG A   2       4.482  21.533  18.965  0.00  0.00    -0.292 N 
ATOM     31 HH11 ARG A   2       3.727  20.818  18.951  0.00  0.00    +0.255 HD
ATOM     32 HH12 ARG A   2       5.345  21.388  18.403  0.00  0.00    +0.255 HD
ATOM     33  HE  ARG A   2       6.173  23.359  19.101  0.00  0.00    +0.259 HD
ENDBRANCH  24  25
ENDBRANCH  23  24
ENDBRANCH  22  23
ENDBRANCH   1  22
TORSDOF 12
REMARK  Name = ../refined-set-2016/5bry/5bry_pocket.pdb
REMARK  226 active torsions:
REMARK  status: ('A' for Active; 'I' for Inactive)
REMARK    1  A    between atoms: _1  and  _3
REMARK    2  A    between atoms: _3  and  _4
REMARK    3  A    between atoms: _3  and  _6
REMARK    4  A    between atoms: _6  and  _7
REMARK    5  A    between atoms: _7  and  _8
REMARK    6  A    between atoms: _8  and  _9
REMARK    7  A    between atoms: _18  and  _20
REMARK    8  A    between atoms: _20  and  _21
REMARK    9  A    between atoms: _20  and  _23
REMARK   10  A    between atoms: _23  and  _24
REMARK   11  A    between atoms: _27  and  _29
REMARK   12  A    between atoms: _29  and  _30
REMARK   13  A    between atoms: _29  and  _32
REMARK   14  A    between atoms: _32  and  _33
REMARK   15  A    between atoms: _36  and  _38
REMARK   16  A    between atoms: _38  and  _39
REMARK   17  A    between atoms: _38  and  _41
REMARK   18  A    between atoms: _41  and  _42
REMARK   19  A    between atoms: _45  and  _47
REMARK   20  A    between atoms: _47  and  _48
REMARK   21  A    between atoms: _47  and  _50
REMARK   22  A    between atoms: _50  and  _51
REMARK   23  A    between atoms: _54  and  _56
REMARK   24  A    between atoms: _56  and  _57
REMARK   25  A    between atoms: _59  and  _61
REMARK   26  A    between atoms: _61  and  _62
REMARK   27  A    between atoms: _65  and  _67
REMARK   28  A    between atoms: _67  and  _68
REMARK   29  A    between atoms: _67  and  _70
REMARK   30  A    between atoms: _70  and  _71
REMARK   31  A    between atoms: _74  and  _76
REMARK   32  A    between atoms: _76  and  _77
REMARK   33  A    between atoms: _76  and  _79
REMARK   34  A    between atoms: _79  and  _80
REMARK   35  A    between atoms: _83  and  _85
REMARK   36  A    between atoms: _85  and  _86
REMARK   37  A    between atoms: _85  and  _88
REMARK   38  A    between atoms: _88  and  _89
REMARK   39  A    between atoms: _92  and  _94
REMARK   40  A    between atoms: _94  and  _95
REMARK   41  A    between atoms: _94  and  _97
REMARK   42  A    between atoms: _100  and  _102
REMARK   43  A    between atoms: _102  and  _103
REMARK   44  A    between atoms: _102  and  _105
REMARK   45  A    between atoms: _105  and  _106
REMARK   46  A    between atoms: _106  and  _107
REMARK   47  A    between atoms: _107  and  _108
REMARK   48  A    between atoms: _108  and  _109
REMARK   49  A    between atoms: _113  and  _115
REMARK   50  A    between atoms: _115  and  _116
REMARK   51  A    between atoms: _115  and  _118
REMARK   52  A    between atoms: _118  and  _119
REMARK   53  A    between atoms: _119  and  _120
REMARK   54  A    between atoms: _122  and  _124
REMARK   55  A    between atoms: _124  and  _125
REMARK   56  A    between atoms: _124  and  _127
REMARK   57  A    between atoms: _127  and  _128
REMARK   58  A    between atoms: _131  and  _133
REMARK   59  A    between atoms: _133  and  _134
REMARK   60  A    between atoms: _136  and  _138
REMARK   61  A    between atoms: _138  and  _139
REMARK   62  A    between atoms: _141  and  _143
REMARK   63  A    between atoms: _143  and  _144
REMARK   64  A    between atoms: _143  and  _146
REMARK   65  A    between atoms: _146  and  _147
REMARK   66  A    between atoms: _150  and  _152
REMARK   67  A    between atoms: _152  and  _153
REMARK   68  A    between atoms: _155  and  _157
REMARK   69  A    between atoms: _157  and  _158
REMARK   70  A    between atoms: _160  and  _162
REMARK   71  A    between atoms: _162  and  _163
REMARK   72  A    between atoms: _162  and  _165
REMARK   73  A    between atoms: _165  and  _166
REMARK   74  A    between atoms: _172  and  _174
REMARK   75  A    between atoms: _174  and  _175
REMARK   76  A    between atoms: _174  and  _177
REMARK   77  A    between atoms: _177  and  _178
REMARK   78  A    between atoms: _181  and  _183
REMARK   79  A    between atoms: _183  and  _184
REMARK   80  A    between atoms: _183  and  _186
REMARK   81  A    between atoms: _189  and  _191
REMARK   82  A    between atoms: _191  and  _192
REMARK   83  A    between atoms: _191  and  _194
REMARK   84  A    between atoms: _194  and  _195
REMARK   85  A    between atoms: _199  and  _200
REMARK   86  A    between atoms: _205  and  _207
REMARK   87  A    between atoms: _207  and  _208
REMARK   88  A    between atoms: _207  and  _210
REMARK   89  A    between atoms: _210  and  _211
REMARK   90  A    between atoms: _215  and  _216
REMARK   91  A    between atoms: _221  and  _223
REMARK   92  A    between atoms: _223  and  _224
REMARK   93  A    between atoms: _223  and  _226
REMARK   94  A    between atoms: _229  and  _231
REMARK   95  A    between atoms: _231  and  _232
REMARK   96  A    between atoms: _231  and  _234
REMARK   97  A    between atoms: _234  and  _235
REMARK   98  A    between atoms: _240  and  _242
REMARK   99  A    between atoms: _242  and  _243
REMARK  100  A    between atoms: _242  and  _245
REMARK  101  A    between atoms: _245  and  _246
REMARK  102  A    between atoms: _249  and  _251
REMARK  103  A    between atoms: _251  and  _252
REMARK  104  A    between atoms: _251  and  _254
REMARK  105  A    between atoms: _254  and  _255
REMARK  106  A    between atoms: _258  and  _260
REMARK  107  A    between atoms: _260  and  _261
REMARK  108  A    between atoms: _263  and  _265
REMARK  109  A    between atoms: _265  and  _266
REMARK  110  A    between atoms: _265  and  _268
REMARK  111  A    between atoms: _268  and  _269
REMARK  112  A    between atoms: _269  and  _270
REMARK  113  A    between atoms: _270  and  _271
REMARK  114  A    between atoms: _280  and  _282
REMARK  115  A    between atoms: _282  and  _283
REMARK  116  A    between atoms: _282  and  _285
REMARK  117  A    between atoms: _285  and  _286
REMARK  118  A    between atoms: _291  and  _293
REMARK  119  A    between atoms: _293  and  _294
REMARK  120  A    between atoms: _293  and  _296
REMARK  121  A    between atoms: _296  and  _297
REMARK  122  A    between atoms: _297  and  _298
REMARK  123  A    between atoms: _298  and  _299
REMARK  124  A    between atoms: _308  and  _310
REMARK  125  A    between atoms: _310  and  _311
REMARK  126  A    between atoms: _310  and  _313
REMARK  127  A    between atoms: _313  and  _314
REMARK  128  A    between atoms: _317  and  _319
REMARK  129  A    between atoms: _319  and  _320
REMARK  130  A    between atoms: _319  and  _322
REMARK  131  A    between atoms: _322  and  _323
REMARK  132  A    between atoms: _326  and  _328
REMARK  133  A    between atoms: _328  and  _329
REMARK  134  A    between atoms: _328  and  _331
REMARK  135  A    between atoms: _331  and  _332
REMARK  136  A    between atoms: _335  and  _337
REMARK  137  A    between atoms: _337  and  _338
REMARK  138  A    between atoms: _337  and  _340
REMARK  139  A    between atoms: _340  and  _341
REMARK  140  A    between atoms: _344  and  _346
REMARK  141  A    between atoms: _346  and  _347
REMARK  142  A    between atoms: _349  and  _351
REMARK  143  A    between atoms: _351  and  _352
REMARK  144  A    between atoms: _355  and  _357
REMARK  145  A    between atoms: _357  and  _358
REMARK  146  A    between atoms: _357  and  _360
REMARK  147  A    between atoms: _360  and  _361
REMARK  148  A    between atoms: _364  and  _366
REMARK  149  A    between atoms: _366  and  _367
REMARK  150  A    between atoms: _366  and  _369
REMARK  151  A    between atoms: _369  and  _370
REMARK  152  A    between atoms: _373  and  _375
REMARK  153  A    between atoms: _375  and  _376
REMARK  154  A    between atoms: _375  and  _378
REMARK  155  A    between atoms: _378  and  _379
REMARK  156  A    between atoms: _382  and  _384
REMARK  157  A    between atoms: _384  and  _385
REMARK  158  A    between atoms: _384  and  _387
REMARK  159  A    between atoms: _390  and  _392
REMARK  160  A    between atoms: _392  and  _393
REMARK  161  A    between atoms: _392  and  _395
REMARK  162  A    between atoms: _395  and  _396
REMARK  163  A    between atoms: _396  and  _397
REMARK  164  A    between atoms: _397  and  _398
REMARK  165  A    between atoms: _398  and  _399
REMARK  166  A    between atoms: _403  and  _405
REMARK  167  A    between atoms: _405  and  _406
REMARK  168  A    between atoms: _405  and  _408
REMARK  169  A    between atoms: _408  and  _409
REMARK  170  A    between atoms: _409  and  _410
REMARK  171  A    between atoms: _412  and  _414
REMARK  172  A    between atoms: _414  and  _415
REMARK  173  A    between atoms: _414  and  _417
REMARK  174  A    between atoms: _417  and  _418
REMARK  175  A    between atoms: _421  and  _423
REMARK  176  A    between atoms: _423  and  _424
REMARK  177  A    between atoms: _426  and  _428
REMARK  178  A    between atoms: _428  and  _429
REMARK  179  A    between atoms: _431  and  _433
REMARK  180  A    between atoms: _433  and  _434
REMARK  181  A    between atoms: _433  and  _436
REMARK  182  A    between atoms: _436  and  _437
REMARK  183  A    between atoms: _440  and  _442
REMARK  184  A    between atoms: _442  and  _443
REMARK  185  A    between atoms: _445  and  _447
REMARK  186  A    between atoms: _447  and  _448
REMARK  187  A    between atoms: _450  and  _452
REMARK  188  A    between atoms: _452  and  _453
REMARK  189  A    between atoms: _452  and  _455
REMARK  190  A    between atoms: _455  and  _456
REMARK  191  A    between atoms: _462  and  _464
REMARK  192  A    between atoms: _464  and  _465
REMARK  193  A    between atoms: _464  and  _467
REMARK  194  A    between atoms: _467  and  _468
REMARK  195  A    between atoms: _471  and  _473
REMARK  196  A    between atoms: _473  and  _474
REMARK  197  A    between atoms: _473  and  _476
REMARK  198  A    between atoms: _476  and  _477
REMARK  199  A    between atoms: _480  and  _482
REMARK  200  A    between atoms: _482  and  _483
REMARK  201  A    between atoms: _482  and  _485
REMARK  202  A    between atoms: _485  and  _486
REMARK  203  A    between atoms: _490  and  _491
REMARK  204  A    between atoms: _496  and  _498
REMARK  205  A    between atoms: _498  and  _499
REMARK  206  A    between atoms: _498  and  _501
REMARK  207  A    between atoms: _504  and  _506
REMARK  208  A    between atoms: _506  and  _507
REMARK  209  A    between atoms: _506  and  _509
REMARK  210  A    between atoms: _509  and  _510
REMARK  211  A    between atoms: _515  and  _517
REMARK  212  A    between atoms: _517  and  _518
REMARK  213  A    between atoms: _517  and  _520
REMARK  214  A    between atoms: _520  and  _521
REMARK  215  A    between atoms: _524  and  _526
REMARK  216  A    between atoms: _526  and  _527
REMARK  217  A    between atoms: _529  and  _531
REMARK  218  A    between atoms: _531  and  _532
REMARK  219  A    between atoms: _531  and  _534
REMARK  220  A    between atoms: _534  and  _535
REMARK  221  A    between atoms: _535  and  _536
REMARK  222  A    between atoms: _536  and  _537
REMARK  223  A    between atoms: _546  and  _548
REMARK  224  A    between atoms: _548  and  _549
REMARK  225  A    between atoms: _548  and  _551
REMARK  226  A    between atoms: _551  and  _552
REMARK                            x       y       z     vdW  Elec       q    Type
REMARK                         _______ _______ _______ _____ _____    ______ ____
ROOT
ATOM      1  O   HOH     1      28.417  33.604  11.196  0.00  0.00    +0.000 OA
ENDROOT
TORSDOF 0
REMARK  Name = ../refined-set-2016/5bry/5bry_pocket.pdb
REMARK  226 active torsions:
REMARK  status: ('A' for Active; 'I' for Inactive)
REMARK    1  A    between atoms: _1  and  _3
REMARK    2  A    between atoms: _3  and  _4
REMARK    3  A    between atoms: _3  and  _6
REMARK    4  A    between atoms: _6  and  _7
REMARK    5  A    between atoms: _7  and  _8
REMARK    6  A    between atoms: _8  and  _9
REMARK    7  A    between atoms: _18  and  _20
REMARK    8  A    between atoms: _20  and  _21
REMARK    9  A    between atoms: _20  and  _23
REMARK   10  A    between atoms: _23  and  _24
REMARK   11  A    between atoms: _27  and  _29
REMARK   12  A    between atoms: _29  and  _30
REMARK   13  A    between atoms: _29  and  _32
REMARK   14  A    between atoms: _32  and  _33
REMARK   15  A    between atoms: _36  and  _38
REMARK   16  A    between atoms: _38  and  _39
REMARK   17  A    between atoms: _38  and  _41
REMARK   18  A    between atoms: _41  and  _42
REMARK   19  A    between atoms: _45  and  _47
REMARK   20  A    between atoms: _47  and  _48
REMARK   21  A    between atoms: _47  and  _50
REMARK   22  A    between atoms: _50  and  _51
REMARK   23  A    between atoms: _54  and  _56
REMARK   24  A    between atoms: _56  and  _57
REMARK   25  A    between atoms: _59  and  _61
REMARK   26  A    between atoms: _61  and  _62
REMARK   27  A    between atoms: _65  and  _67
REMARK   28  A    between atoms: _67  and  _68
REMARK   29  A    between atoms: _67  and  _70
REMARK   30  A    between atoms: _70  and  _71
REMARK   31  A    between atoms: _74  and  _76
REMARK   32  A    between atoms: _76  and  _77
REMARK   33  A    between atoms: _76  and  _79
REMARK   34  A    between atoms: _79  and  _80
REMARK   35  A    between atoms: _83  and  _85
REMARK   36  A    between atoms: _85  and  _86
REMARK   37  A    between atoms: _85  and  _88
REMARK   38  A    between atoms: _88  and  _89
REMARK   39  A    between atoms: _92  and  _94
REMARK   40  A    between atoms: _94  and  _95
REMARK   41  A    between atoms: _94  and  _97
REMARK   42  A    between atoms: _100  and  _102
REMARK   43  A    between atoms: _102  and  _103
REMARK   44  A    between atoms: _102  and  _105
REMARK   45  A    between atoms: _105  and  _106
REMARK   46  A    between atoms: _106  and  _107
REMARK   47  A    between atoms: _107  and  _108
REMARK   48  A    between atoms: _108  and  _109
REMARK   49  A    between atoms: _113  and  _115
REMARK   50  A    between atoms: _115  and  _116
REMARK   51  A    between atoms: _115  and  _118
REMARK   52  A    between atoms: _118  and  _119
REMARK   53  A    between atoms: _119  and  _120
REMARK   54  A    between atoms: _122  and  _124
REMARK   55  A    between atoms: _124  and  _125
REMARK   56  A    between atoms: _124  and  _127
REMARK   57  A    between atoms: _127  and  _128
REMARK   58  A    between atoms: _131  and  _133
REMARK   59  A    between atoms: _133  and  _134
REMARK   60  A    between atoms: _136  and  _138
REMARK   61  A    between atoms: _138  and  _139
REMARK   62  A    between atoms: _141  and  _143
REMARK   63  A    between atoms: _143  and  _144
REMARK   64  A    between atoms: _143  and  _146
REMARK   65  A    between atoms: _146  and  _147
REMARK   66  A    between atoms: _150  and  _152
REMARK   67  A    between atoms: _152  and  _153
REMARK   68  A    between atoms: _155  and  _157
REMARK   69  A    between atoms: _157  and  _158
REMARK   70  A    between atoms: _160  and  _162
REMARK   71  A    between atoms: _162  and  _163
REMARK   72  A    between atoms: _162  and  _165
REMARK   73  A    between atoms: _165  and  _166
REMARK   74  A    between atoms: _172  and  _174
REMARK   75  A    between atoms: _174  and  _175
REMARK   76  A    between atoms: _174  and  _177
REMARK   77  A    between atoms: _177  and  _178
REMARK   78  A    between atoms: _181  and  _183
REMARK   79  A    between atoms: _183  and  _184
REMARK   80  A    between atoms: _183  and  _186
REMARK   81  A    between atoms: _189  and  _191
REMARK   82  A    between atoms: _191  and  _192
REMARK   83  A    between atoms: _191  and  _194
REMARK   84  A    between atoms: _194  and  _195
REMARK   85  A    between atoms: _199  and  _200
REMARK   86  A    between atoms: _205  and  _207
REMARK   87  A    between atoms: _207  and  _208
REMARK   88  A    between atoms: _207  and  _210
REMARK   89  A    between atoms: _210  and  _211
REMARK   90  A    between atoms: _215  and  _216
REMARK   91  A    between atoms: _221  and  _223
REMARK   92  A    between atoms: _223  and  _224
REMARK   93  A    between atoms: _223  and  _226
REMARK   94  A    between atoms: _229  and  _231
REMARK   95  A    between atoms: _231  and  _232
REMARK   96  A    between atoms: _231  and  _234
REMARK   97  A    between atoms: _234  and  _235
REMARK   98  A    between atoms: _240  and  _242
REMARK   99  A    between atoms: _242  and  _243
REMARK  100  A    between atoms: _242  and  _245
REMARK  101  A    between atoms: _245  and  _246
REMARK  102  A    between atoms: _249  and  _251
REMARK  103  A    between atoms: _251  and  _252
REMARK  104  A    between atoms: _251  and  _254
REMARK  105  A    between atoms: _254  and  _255
REMARK  106  A    between atoms: _258  and  _260
REMARK  107  A    between atoms: _260  and  _261
REMARK  108  A    between atoms: _263  and  _265
REMARK  109  A    between atoms: _265  and  _266
REMARK  110  A    between atoms: _265  and  _268
REMARK  111  A    between atoms: _268  and  _269
REMARK  112  A    between atoms: _269  and  _270
REMARK  113  A    between atoms: _270  and  _271
REMARK  114  A    between atoms: _280  and  _282
REMARK  115  A    between atoms: _282  and  _283
REMARK  116  A    between atoms: _282  and  _285
REMARK  117  A    between atoms: _285  and  _286
REMARK  118  A    between atoms: _291  and  _293
REMARK  119  A    between atoms: _293  and  _294
REMARK  120  A    between atoms: _293  and  _296
REMARK  121  A    between atoms: _296  and  _297
REMARK  122  A    between atoms: _297  and  _298
REMARK  123  A    between atoms: _298  and  _299
REMARK  124  A    between atoms: _308  and  _310
REMARK  125  A    between atoms: _310  and  _311
REMARK  126  A    between atoms: _310  and  _313
REMARK  127  A    between atoms: _313  and  _314
REMARK  128  A    between atoms: _317  and  _319
REMARK  129  A    between atoms: _319  and  _320
REMARK  130  A    between atoms: _319  and  _322
REMARK  131  A    between atoms: _322  and  _323
REMARK  132  A    between atoms: _326  and  _328
REMARK  133  A    between atoms: _328  and  _329
REMARK  134  A    between atoms: _328  and  _331
REMARK  135  A    between atoms: _331  and  _332
REMARK  136  A    between atoms: _335  and  _337
REMARK  137  A    between atoms: _337  and  _338
REMARK  138  A    between atoms: _337  and  _340
REMARK  139  A    between atoms: _340  and  _341
REMARK  140  A    between atoms: _344  and  _346
REMARK  141  A    between atoms: _346  and  _347
REMARK  142  A    between atoms: _349  and  _351
REMARK  143  A    between atoms: _351  and  _352
REMARK  144  A    between atoms: _355  and  _357
REMARK  145  A    between atoms: _357  and  _358
REMARK  146  A    between atoms: _357  and  _360
REMARK  147  A    between atoms: _360  and  _361
REMARK  148  A    between atoms: _364  and  _366
REMARK  149  A    between atoms: _366  and  _367
REMARK  150  A    between atoms: _366  and  _369
REMARK  151  A    between atoms: _369  and  _370
REMARK  152  A    between atoms: _373  and  _375
REMARK  153  A    between atoms: _375  and  _376
REMARK  154  A    between atoms: _375  and  _378
REMARK  155  A    between atoms: _378  and  _379
REMARK  156  A    between atoms: _382  and  _384
REMARK  157  A    between atoms: _384  and  _385
REMARK  158  A    between atoms: _384  and  _387
REMARK  159  A    between atoms: _390  and  _392
REMARK  160  A    between atoms: _392  and  _393
REMARK  161  A    between atoms: _392  and  _395
REMARK  162  A    between atoms: _395  and  _396
REMARK  163  A    between atoms: _396  and  _397
REMARK  164  A    between atoms: _397  and  _398
REMARK  165  A    between atoms: _398  and  _399
REMARK  166  A    between atoms: _403  and  _405
REMARK  167  A    between atoms: _405  and  _406
REMARK  168  A    between atoms: _405  and  _408
REMARK  169  A    between atoms: _408  and  _409
REMARK  170  A    between atoms: _409  and  _410
REMARK  171  A    between atoms: _412  and  _414
REMARK  172  A    between atoms: _414  and  _415
REMARK  173  A    between atoms: _414  and  _417
REMARK  174  A    between atoms: _417  and  _418
REMARK  175  A    between atoms: _421  and  _423
REMARK  176  A    between atoms: _423  and  _424
REMARK  177  A    between atoms: _426  and  _428
REMARK  178  A    between atoms: _428  and  _429
REMARK  179  A    between atoms: _431  and  _433
REMARK  180  A    between atoms: _433  and  _434
REMARK  181  A    between atoms: _433  and  _436
REMARK  182  A    between atoms: _436  and  _437
REMARK  183  A    between atoms: _440  and  _442
REMARK  184  A    between atoms: _442  and  _443
REMARK  185  A    between atoms: _445  and  _447
REMARK  186  A    between atoms: _447  and  _448
REMARK  187  A    between atoms: _450  and  _452
REMARK  188  A    between atoms: _452  and  _453
REMARK  189  A    between atoms: _452  and  _455
REMARK  190  A    between atoms: _455  and  _456
REMARK  191  A    between atoms: _462  and  _464
REMARK  192  A    between atoms: _464  and  _465
REMARK  193  A    between atoms: _464  and  _467
REMARK  194  A    between atoms: _467  and  _468
REMARK  195  A    between atoms: _471  and  _473
REMARK  196  A    between atoms: _473  and  _474
REMARK  197  A    between atoms: _473  and  _476
REMARK  198  A    between atoms: _476  and  _477
REMARK  199  A    between atoms: _480  and  _482
REMARK  200  A    between atoms: _482  and  _483
REMARK  201  A    between atoms: _482  and  _485
REMARK  202  A    between atoms: _485  and  _486
REMARK  203  A    between atoms: _490  and  _491
REMARK  204  A    between atoms: _496  and  _498
REMARK  205  A    between atoms: _498  and  _499
REMARK  206  A    between atoms: _498  and  _501
REMARK  207  A    between atoms: _504  and  _506
REMARK  208  A    between atoms: _506  and  _507
REMARK  209  A    between atoms: _506  and  _509
REMARK  210  A    between atoms: _509  and  _510
REMARK  211  A    between atoms: _515  and  _517
REMARK  212  A    between atoms: _517  and  _518
REMARK  213  A    between atoms: _517  and  _520
REMARK  214  A    between atoms: _520  and  _521
REMARK  215  A    between atoms: _524  and  _526
REMARK  216  A    between atoms: _526  and  _527
REMARK  217  A    between atoms: _529  and  _531
REMARK  218  A    between atoms: _531  and  _532
REMARK  219  A    between atoms: _531  and  _534
REMARK  220  A    between atoms: _534  and  _535
REMARK  221  A    between atoms: _535  and  _536
REMARK  222  A    between atoms: _536  and  _537
REMARK  223  A    between atoms: _546  and  _548
REMARK  224  A    between atoms: _548  and  _549
REMARK  225  A    between atoms: _548  and  _551
REMARK  226  A    between atoms: _551  and  _552
REMARK                            x       y       z     vdW  Elec       q    Type
REMARK                         _______ _______ _______ _____ _____    ______ ____
ROOT
ATOM      1  O   HOH     1      20.716  28.114  18.178  0.00  0.00    +0.000 OA
ENDROOT
TORSDOF 0
REMARK  Name = ../refined-set-2016/5bry/5bry_pocket.pdb
REMARK  226 active torsions:
REMARK  status: ('A' for Active; 'I' for Inactive)
REMARK    1  A    between atoms: _1  and  _3
REMARK    2  A    between atoms: _3  and  _4
REMARK    3  A    between atoms: _3  and  _6
REMARK    4  A    between atoms: _6  and  _7
REMARK    5  A    between atoms: _7  and  _8
REMARK    6  A    between atoms: _8  and  _9
REMARK    7  A    between atoms: _18  and  _20
REMARK    8  A    between atoms: _20  and  _21
REMARK    9  A    between atoms: _20  and  _23
REMARK   10  A    between atoms: _23  and  _24
REMARK   11  A    between atoms: _27  and  _29
REMARK   12  A    between atoms: _29  and  _30
REMARK   13  A    between atoms: _29  and  _32
REMARK   14  A    between atoms: _32  and  _33
REMARK   15  A    between atoms: _36  and  _38
REMARK   16  A    between atoms: _38  and  _39
REMARK   17  A    between atoms: _38  and  _41
REMARK   18  A    between atoms: _41  and  _42
REMARK   19  A    between atoms: _45  and  _47
REMARK   20  A    between atoms: _47  and  _48
REMARK   21  A    between atoms: _47  and  _50
REMARK   22  A    between atoms: _50  and  _51
REMARK   23  A    between atoms: _54  and  _56
REMARK   24  A    between atoms: _56  and  _57
REMARK   25  A    between atoms: _59  and  _61
REMARK   26  A    between atoms: _61  and  _62
REMARK   27  A    between atoms: _65  and  _67
REMARK   28  A    between atoms: _67  and  _68
REMARK   29  A    between atoms: _67  and  _70
REMARK   30  A    between atoms: _70  and  _71
REMARK   31  A    between atoms: _74  and  _76
REMARK   32  A    between atoms: _76  and  _77
REMARK   33  A    between atoms: _76  and  _79
REMARK   34  A    between atoms: _79  and  _80
REMARK   35  A    between atoms: _83  and  _85
REMARK   36  A    between atoms: _85  and  _86
REMARK   37  A    between atoms: _85  and  _88
REMARK   38  A    between atoms: _88  and  _89
REMARK   39  A    between atoms: _92  and  _94
REMARK   40  A    between atoms: _94  and  _95
REMARK   41  A    between atoms: _94  and  _97
REMARK   42  A    between atoms: _100  and  _102
REMARK   43  A    between atoms: _102  and  _103
REMARK   44  A    between atoms: _102  and  _105
REMARK   45  A    between atoms: _105  and  _106
REMARK   46  A    between atoms: _106  and  _107
REMARK   47  A    between atoms: _107  and  _108
REMARK   48  A    between atoms: _108  and  _109
REMARK   49  A    between atoms: _113  and  _115
REMARK   50  A    between atoms: _115  and  _116
REMARK   51  A    between atoms: _115  and  _118
REMARK   52  A    between atoms: _118  and  _119
REMARK   53  A    between atoms: _119  and  _120
REMARK   54  A    between atoms: _122  and  _124
REMARK   55  A    between atoms: _124  and  _125
REMARK   56  A    between atoms: _124  and  _127
REMARK   57  A    between atoms: _127  and  _128
REMARK   58  A    between atoms: _131  and  _133
REMARK   59  A    between atoms: _133  and  _134
REMARK   60  A    between atoms: _136  and  _138
REMARK   61  A    between atoms: _138  and  _139
REMARK   62  A    between atoms: _141  and  _143
REMARK   63  A    between atoms: _143  and  _144
REMARK   64  A    between atoms: _143  and  _146
REMARK   65  A    between atoms: _146  and  _147
REMARK   66  A    between atoms: _150  and  _152
REMARK   67  A    between atoms: _152  and  _153
REMARK   68  A    between atoms: _155  and  _157
REMARK   69  A    between atoms: _157  and  _158
REMARK   70  A    between atoms: _160  and  _162
REMARK   71  A    between atoms: _162  and  _163
REMARK   72  A    between atoms: _162  and  _165
REMARK   73  A    between atoms: _165  and  _166
REMARK   74  A    between atoms: _172  and  _174
REMARK   75  A    between atoms: _174  and  _175
REMARK   76  A    between atoms: _174  and  _177
REMARK   77  A    between atoms: _177  and  _178
REMARK   78  A    between atoms: _181  and  _183
REMARK   79  A    between atoms: _183  and  _184
REMARK   80  A    between atoms: _183  and  _186
REMARK   81  A    between atoms: _189  and  _191
REMARK   82  A    between atoms: _191  and  _192
REMARK   83  A    between atoms: _191  and  _194
REMARK   84  A    between atoms: _194  and  _195
REMARK   85  A    between atoms: _199  and  _200
REMARK   86  A    between atoms: _205  and  _207
REMARK   87  A    between atoms: _207  and  _208
REMARK   88  A    between atoms: _207  and  _210
REMARK   89  A    between atoms: _210  and  _211
REMARK   90  A    between atoms: _215  and  _216
REMARK   91  A    between atoms: _221  and  _223
REMARK   92  A    between atoms: _223  and  _224
REMARK   93  A    between atoms: _223  and  _226
REMARK   94  A    between atoms: _229  and  _231
REMARK   95  A    between atoms: _231  and  _232
REMARK   96  A    between atoms: _231  and  _234
REMARK   97  A    between atoms: _234  and  _235
REMARK   98  A    between atoms: _240  and  _242
REMARK   99  A    between atoms: _242  and  _243
REMARK  100  A    between atoms: _242  and  _245
REMARK  101  A    between atoms: _245  and  _246
REMARK  102  A    between atoms: _249  and  _251
REMARK  103  A    between atoms: _251  and  _252
REMARK  104  A    between atoms: _251  and  _254
REMARK  105  A    between atoms: _254  and  _255
REMARK  106  A    between atoms: _258  and  _260
REMARK  107  A    between atoms: _260  and  _261
REMARK  108  A    between atoms: _263  and  _265
REMARK  109  A    between atoms: _265  and  _266
REMARK  110  A    between atoms: _265  and  _268
REMARK  111  A    between atoms: _268  and  _269
REMARK  112  A    between atoms: _269  and  _270
REMARK  113  A    between atoms: _270  and  _271
REMARK  114  A    between atoms: _280  and  _282
REMARK  115  A    between atoms: _282  and  _283
REMARK  116  A    between atoms: _282  and  _285
REMARK  117  A    between atoms: _285  and  _286
REMARK  118  A    between atoms: _291  and  _293
REMARK  119  A    between atoms: _293  and  _294
REMARK  120  A    between atoms: _293  and  _296
REMARK  121  A    between atoms: _296  and  _297
REMARK  122  A    between atoms: _297  and  _298
REMARK  123  A    between atoms: _298  and  _299
REMARK  124  A    between atoms: _308  and  _310
REMARK  125  A    between atoms: _310  and  _311
REMARK  126  A    between atoms: _310  and  _313
REMARK  127  A    between atoms: _313  and  _314
REMARK  128  A    between atoms: _317  and  _319
REMARK  129  A    between atoms: _319  and  _320
REMARK  130  A    between atoms: _319  and  _322
REMARK  131  A    between atoms: _322  and  _323
REMARK  132  A    between atoms: _326  and  _328
REMARK  133  A    between atoms: _328  and  _329
REMARK  134  A    between atoms: _328  and  _331
REMARK  135  A    between atoms: _331  and  _332
REMARK  136  A    between atoms: _335  and  _337
REMARK  137  A    between atoms: _337  and  _338
REMARK  138  A    between atoms: _337  and  _340
REMARK  139  A    between atoms: _340  and  _341
REMARK  140  A    between atoms: _344  and  _346
REMARK  141  A    between atoms: _346  and  _347
REMARK  142  A    between atoms: _349  and  _351
REMARK  143  A    between atoms: _351  and  _352
REMARK  144  A    between atoms: _355  and  _357
REMARK  145  A    between atoms: _357  and  _358
REMARK  146  A    between atoms: _357  and  _360
REMARK  147  A    between atoms: _360  and  _361
REMARK  148  A    between atoms: _364  and  _366
REMARK  149  A    between atoms: _366  and  _367
REMARK  150  A    between atoms: _366  and  _369
REMARK  151  A    between atoms: _369  and  _370
REMARK  152  A    between atoms: _373  and  _375
REMARK  153  A    between atoms: _375  and  _376
REMARK  154  A    between atoms: _375  and  _378
REMARK  155  A    between atoms: _378  and  _379
REMARK  156  A    between atoms: _382  and  _384
REMARK  157  A    between atoms: _384  and  _385
REMARK  158  A    between atoms: _384  and  _387
REMARK  159  A    between atoms: _390  and  _392
REMARK  160  A    between atoms: _392  and  _393
REMARK  161  A    between atoms: _392  and  _395
REMARK  162  A    between atoms: _395  and  _396
REMARK  163  A    between atoms: _396  and  _397
REMARK  164  A    between atoms: _397  and  _398
REMARK  165  A    between atoms: _398  and  _399
REMARK  166  A    between atoms: _403  and  _405
REMARK  167  A    between atoms: _405  and  _406
REMARK  168  A    between atoms: _405  and  _408
REMARK  169  A    between atoms: _408  and  _409
REMARK  170  A    between atoms: _409  and  _410
REMARK  171  A    between atoms: _412  and  _414
REMARK  172  A    between atoms: _414  and  _415
REMARK  173  A    between atoms: _414  and  _417
REMARK  174  A    between atoms: _417  and  _418
REMARK  175  A    between atoms: _421  and  _423
REMARK  176  A    between atoms: _423  and  _424
REMARK  177  A    between atoms: _426  and  _428
REMARK  178  A    between atoms: _428  and  _429
REMARK  179  A    between atoms: _431  and  _433
REMARK  180  A    between atoms: _433  and  _434
REMARK  181  A    between atoms: _433  and  _436
REMARK  182  A    between atoms: _436  and  _437
REMARK  183  A    between atoms: _440  and  _442
REMARK  184  A    between atoms: _442  and  _443
REMARK  185  A    between atoms: _445  and  _447
REMARK  186  A    between atoms: _447  and  _448
REMARK  187  A    between atoms: _450  and  _452
REMARK  188  A    between atoms: _452  and  _453
REMARK  189  A    between atoms: _452  and  _455
REMARK  190  A    between atoms: _455  and  _456
REMARK  191  A    between atoms: _462  and  _464
REMARK  192  A    between atoms: _464  and  _465
REMARK  193  A    between atoms: _464  and  _467
REMARK  194  A    between atoms: _467  and  _468
REMARK  195  A    between atoms: _471  and  _473
REMARK  196  A    between atoms: _473  and  _474
REMARK  197  A    between atoms: _473  and  _476
REMARK  198  A    between atoms: _476  and  _477
REMARK  199  A    between atoms: _480  and  _482
REMARK  200  A    between atoms: _482  and  _483
REMARK  201  A    between atoms: _482  and  _485
REMARK  202  A    between atoms: _485  and  _486
REMARK  203  A    between atoms: _490  and  _491
REMARK  204  A    between atoms: _496  and  _498
REMARK  205  A    between atoms: _498  and  _499
REMARK  206  A    between atoms: _498  and  _501
REMARK  207  A    between atoms: _504  and  _506
REMARK  208  A    between atoms: _506  and  _507
REMARK  209  A    between atoms: _506  and  _509
REMARK  210  A    between atoms: _509  and  _510
REMARK  211  A    between atoms: _515  and  _517
REMARK  212  A    between atoms: _517  and  _518
REMARK  213  A    between atoms: _517  and  _520
REMARK  214  A    between atoms: _520  and  _521
REMARK  215  A    between atoms: _524  and  _526
REMARK  216  A    between atoms: _526  and  _527
REMARK  217  A    between atoms: _529  and  _531
REMARK  218  A    between atoms: _531  and  _532
REMARK  219  A    between atoms: _531  and  _534
REMARK  220  A    between atoms: _534  and  _535
REMARK  221  A    between atoms: _535  and  _536
REMARK  222  A    between atoms: _536  and  _537
REMARK  223  A    between atoms: _546  and  _548
REMARK  224  A    between atoms: _548  and  _549
REMARK  225  A    between atoms: _548  and  _551
REMARK  226  A    between atoms: _551  and  _552
REMARK                            x       y       z     vdW  Elec       q    Type
REMARK                         _______ _______ _______ _____ _____    ______ ____
ROOT
ATOM      1  O   HOH     1      20.856  33.768  10.554  0.00  0.00    +0.000 OA
ENDROOT
TORSDOF 0
REMARK  Name = ../refined-set-2016/5bry/5bry_pocket.pdb
REMARK  226 active torsions:
REMARK  status: ('A' for Active; 'I' for Inactive)
REMARK    1  A    between atoms: _1  and  _3
REMARK    2  A    between atoms: _3  and  _4
REMARK    3  A    between atoms: _3  and  _6
REMARK    4  A    between atoms: _6  and  _7
REMARK    5  A    between atoms: _7  and  _8
REMARK    6  A    between atoms: _8  and  _9
REMARK    7  A    between atoms: _18  and  _20
REMARK    8  A    between atoms: _20  and  _21
REMARK    9  A    between atoms: _20  and  _23
REMARK   10  A    between atoms: _23  and  _24
REMARK   11  A    between atoms: _27  and  _29
REMARK   12  A    between atoms: _29  and  _30
REMARK   13  A    between atoms: _29  and  _32
REMARK   14  A    between atoms: _32  and  _33
REMARK   15  A    between atoms: _36  and  _38
REMARK   16  A    between atoms: _38  and  _39
REMARK   17  A    between atoms: _38  and  _41
REMARK   18  A    between atoms: _41  and  _42
REMARK   19  A    between atoms: _45  and  _47
REMARK   20  A    between atoms: _47  and  _48
REMARK   21  A    between atoms: _47  and  _50
REMARK   22  A    between atoms: _50  and  _51
REMARK   23  A    between atoms: _54  and  _56
REMARK   24  A    between atoms: _56  and  _57
REMARK   25  A    between atoms: _59  and  _61
REMARK   26  A    between atoms: _61  and  _62
REMARK   27  A    between atoms: _65  and  _67
REMARK   28  A    between atoms: _67  and  _68
REMARK   29  A    between atoms: _67  and  _70
REMARK   30  A    between atoms: _70  and  _71
REMARK   31  A    between atoms: _74  and  _76
REMARK   32  A    between atoms: _76  and  _77
REMARK   33  A    between atoms: _76  and  _79
REMARK   34  A    between atoms: _79  and  _80
REMARK   35  A    between atoms: _83  and  _85
REMARK   36  A    between atoms: _85  and  _86
REMARK   37  A    between atoms: _85  and  _88
REMARK   38  A    between atoms: _88  and  _89
REMARK   39  A    between atoms: _92  and  _94
REMARK   40  A    between atoms: _94  and  _95
REMARK   41  A    between atoms: _94  and  _97
REMARK   42  A    between atoms: _100  and  _102
REMARK   43  A    between atoms: _102  and  _103
REMARK   44  A    between atoms: _102  and  _105
REMARK   45  A    between atoms: _105  and  _106
REMARK   46  A    between atoms: _106  and  _107
REMARK   47  A    between atoms: _107  and  _108
REMARK   48  A    between atoms: _108  and  _109
REMARK   49  A    between atoms: _113  and  _115
REMARK   50  A    between atoms: _115  and  _116
REMARK   51  A    between atoms: _115  and  _118
REMARK   52  A    between atoms: _118  and  _119
REMARK   53  A    between atoms: _119  and  _120
REMARK   54  A    between atoms: _122  and  _124
REMARK   55  A    between atoms: _124  and  _125
REMARK   56  A    between atoms: _124  and  _127
REMARK   57  A    between atoms: _127  and  _128
REMARK   58  A    between atoms: _131  and  _133
REMARK   59  A    between atoms: _133  and  _134
REMARK   60  A    between atoms: _136  and  _138
REMARK   61  A    between atoms: _138  and  _139
REMARK   62  A    between atoms: _141  and  _143
REMARK   63  A    between atoms: _143  and  _144
REMARK   64  A    between atoms: _143  and  _146
REMARK   65  A    between atoms: _146  and  _147
REMARK   66  A    between atoms: _150  and  _152
REMARK   67  A    between atoms: _152  and  _153
REMARK   68  A    between atoms: _155  and  _157
REMARK   69  A    between atoms: _157  and  _158
REMARK   70  A    between atoms: _160  and  _162
REMARK   71  A    between atoms: _162  and  _163
REMARK   72  A    between atoms: _162  and  _165
REMARK   73  A    between atoms: _165  and  _166
REMARK   74  A    between atoms: _172  and  _174
REMARK   75  A    between atoms: _174  and  _175
REMARK   76  A    between atoms: _174  and  _177
REMARK   77  A    between atoms: _177  and  _178
REMARK   78  A    between atoms: _181  and  _183
REMARK   79  A    between atoms: _183  and  _184
REMARK   80  A    between atoms: _183  and  _186
REMARK   81  A    between atoms: _189  and  _191
REMARK   82  A    between atoms: _191  and  _192
REMARK   83  A    between atoms: _191  and  _194
REMARK   84  A    between atoms: _194  and  _195
REMARK   85  A    between atoms: _199  and  _200
REMARK   86  A    between atoms: _205  and  _207
REMARK   87  A    between atoms: _207  and  _208
REMARK   88  A    between atoms: _207  and  _210
REMARK   89  A    between atoms: _210  and  _211
REMARK   90  A    between atoms: _215  and  _216
REMARK   91  A    between atoms: _221  and  _223
REMARK   92  A    between atoms: _223  and  _224
REMARK   93  A    between atoms: _223  and  _226
REMARK   94  A    between atoms: _229  and  _231
REMARK   95  A    between atoms: _231  and  _232
REMARK   96  A    between atoms: _231  and  _234
REMARK   97  A    between atoms: _234  and  _235
REMARK   98  A    between atoms: _240  and  _242
REMARK   99  A    between atoms: _242  and  _243
REMARK  100  A    between atoms: _242  and  _245
REMARK  101  A    between atoms: _245  and  _246
REMARK  102  A    between atoms: _249  and  _251
REMARK  103  A    between atoms: _251  and  _252
REMARK  104  A    between atoms: _251  and  _254
REMARK  105  A    between atoms: _254  and  _255
REMARK  106  A    between atoms: _258  and  _260
REMARK  107  A    between atoms: _260  and  _261
REMARK  108  A    between atoms: _263  and  _265
REMARK  109  A    between atoms: _265  and  _266
REMARK  110  A    between atoms: _265  and  _268
REMARK  111  A    between atoms: _268  and  _269
REMARK  112  A    between atoms: _269  and  _270
REMARK  113  A    between atoms: _270  and  _271
REMARK  114  A    between atoms: _280  and  _282
REMARK  115  A    between atoms: _282  and  _283
REMARK  116  A    between atoms: _282  and  _285
REMARK  117  A    between atoms: _285  and  _286
REMARK  118  A    between atoms: _291  and  _293
REMARK  119  A    between atoms: _293  and  _294
REMARK  120  A    between atoms: _293  and  _296
REMARK  121  A    between atoms: _296  and  _297
REMARK  122  A    between atoms: _297  and  _298
REMARK  123  A    between atoms: _298  and  _299
REMARK  124  A    between atoms: _308  and  _310
REMARK  125  A    between atoms: _310  and  _311
REMARK  126  A    between atoms: _310  and  _313
REMARK  127  A    between atoms: _313  and  _314
REMARK  128  A    between atoms: _317  and  _319
REMARK  129  A    between atoms: _319  and  _320
REMARK  130  A    between atoms: _319  and  _322
REMARK  131  A    between atoms: _322  and  _323
REMARK  132  A    between atoms: _326  and  _328
REMARK  133  A    between atoms: _328  and  _329
REMARK  134  A    between atoms: _328  and  _331
REMARK  135  A    between atoms: _331  and  _332
REMARK  136  A    between atoms: _335  and  _337
REMARK  137  A    between atoms: _337  and  _338
REMARK  138  A    between atoms: _337  and  _340
REMARK  139  A    between atoms: _340  and  _341
REMARK  140  A    between atoms: _344  and  _346
REMARK  141  A    between atoms: _346  and  _347
REMARK  142  A    between atoms: _349  and  _351
REMARK  143  A    between atoms: _351  and  _352
REMARK  144  A    between atoms: _355  and  _357
REMARK  145  A    between atoms: _357  and  _358
REMARK  146  A    between atoms: _357  and  _360
REMARK  147  A    between atoms: _360  and  _361
REMARK  148  A    between atoms: _364  and  _366
REMARK  149  A    between atoms: _366  and  _367
REMARK  150  A    between atoms: _366  and  _369
REMARK  151  A    between atoms: _369  and  _370
REMARK  152  A    between atoms: _373  and  _375
REMARK  153  A    between atoms: _375  and  _376
REMARK  154  A    between atoms: _375  and  _378
REMARK  155  A    between atoms: _378  and  _379
REMARK  156  A    between atoms: _382  and  _384
REMARK  157  A    between atoms: _384  and  _385
REMARK  158  A    between atoms: _384  and  _387
REMARK  159  A    between atoms: _390  and  _392
REMARK  160  A    between atoms: _392  and  _393
REMARK  161  A    between atoms: _392  and  _395
REMARK  162  A    between atoms: _395  and  _396
REMARK  163  A    between atoms: _396  and  _397
REMARK  164  A    between atoms: _397  and  _398
REMARK  165  A    between atoms: _398  and  _399
REMARK  166  A    between atoms: _403  and  _405
REMARK  167  A    between atoms: _405  and  _406
REMARK  168  A    between atoms: _405  and  _408
REMARK  169  A    between atoms: _408  and  _409
REMARK  170  A    between atoms: _409  and  _410
REMARK  171  A    between atoms: _412  and  _414
REMARK  172  A    between atoms: _414  and  _415
REMARK  173  A    between atoms: _414  and  _417
REMARK  174  A    between atoms: _417  and  _418
REMARK  175  A    between atoms: _421  and  _423
REMARK  176  A    between atoms: _423  and  _424
REMARK  177  A    between atoms: _426  and  _428
REMARK  178  A    between atoms: _428  and  _429
REMARK  179  A    between atoms: _431  and  _433
REMARK  180  A    between atoms: _433  and  _434
REMARK  181  A    between atoms: _433  and  _436
REMARK  182  A    between atoms: _436  and  _437
REMARK  183  A    between atoms: _440  and  _442
REMARK  184  A    between atoms: _442  and  _443
REMARK  185  A    between atoms: _445  and  _447
REMARK  186  A    between atoms: _447  and  _448
REMARK  187  A    between atoms: _450  and  _452
REMARK  188  A    between atoms: _452  and  _453
REMARK  189  A    between atoms: _452  and  _455
REMARK  190  A    between atoms: _455  and  _456
REMARK  191  A    between atoms: _462  and  _464
REMARK  192  A    between atoms: _464  and  _465
REMARK  193  A    between atoms: _464  and  _467
REMARK  194  A    between atoms: _467  and  _468
REMARK  195  A    between atoms: _471  and  _473
REMARK  196  A    between atoms: _473  and  _474
REMARK  197  A    between atoms: _473  and  _476
REMARK  198  A    between atoms: _476  and  _477
REMARK  199  A    between atoms: _480  and  _482
REMARK  200  A    between atoms: _482  and  _483
REMARK  201  A    between atoms: _482  and  _485
REMARK  202  A    between atoms: _485  and  _486
REMARK  203  A    between atoms: _490  and  _491
REMARK  204  A    between atoms: _496  and  _498
REMARK  205  A    between atoms: _498  and  _499
REMARK  206  A    between atoms: _498  and  _501
REMARK  207  A    between atoms: _504  and  _506
REMARK  208  A    between atoms: _506  and  _507
REMARK  209  A    between atoms: _506  and  _509
REMARK  210  A    between atoms: _509  and  _510
REMARK  211  A    between atoms: _515  and  _517
REMARK  212  A    between atoms: _517  and  _518
REMARK  213  A    between atoms: _517  and  _520
REMARK  214  A    between atoms: _520  and  _521
REMARK  215  A    between atoms: _524  and  _526
REMARK  216  A    between atoms: _526  and  _527
REMARK  217  A    between atoms: _529  and  _531
REMARK  218  A    between atoms: _531  and  _532
REMARK  219  A    between atoms: _531  and  _534
REMARK  220  A    between atoms: _534  and  _535
REMARK  221  A    between atoms: _535  and  _536
REMARK  222  A    between atoms: _536  and  _537
REMARK  223  A    between atoms: _546  and  _548
REMARK  224  A    between atoms: _548  and  _549
REMARK  225  A    between atoms: _548  and  _551
REMARK  226  A    between atoms: _551  and  _552
REMARK                            x       y       z     vdW  Elec       q    Type
REMARK                         _______ _______ _______ _____ _____    ______ ____
ROOT
ATOM      1  O   HOH     1      18.356  30.931  21.536  0.00  0.00    +0.000 OA
ENDROOT
TORSDOF 0
REMARK  Name = ../refined-set-2016/5bry/5bry_pocket.pdb
REMARK  226 active torsions:
REMARK  status: ('A' for Active; 'I' for Inactive)
REMARK    1  A    between atoms: _1  and  _3
REMARK    2  A    between atoms: _3  and  _4
REMARK    3  A    between atoms: _3  and  _6
REMARK    4  A    between atoms: _6  and  _7
REMARK    5  A    between atoms: _7  and  _8
REMARK    6  A    between atoms: _8  and  _9
REMARK    7  A    between atoms: _18  and  _20
REMARK    8  A    between atoms: _20  and  _21
REMARK    9  A    between atoms: _20  and  _23
REMARK   10  A    between atoms: _23  and  _24
REMARK   11  A    between atoms: _27  and  _29
REMARK   12  A    between atoms: _29  and  _30
REMARK   13  A    between atoms: _29  and  _32
REMARK   14  A    between atoms: _32  and  _33
REMARK   15  A    between atoms: _36  and  _38
REMARK   16  A    between atoms: _38  and  _39
REMARK   17  A    between atoms: _38  and  _41
REMARK   18  A    between atoms: _41  and  _42
REMARK   19  A    between atoms: _45  and  _47
REMARK   20  A    between atoms: _47  and  _48
REMARK   21  A    between atoms: _47  and  _50
REMARK   22  A    between atoms: _50  and  _51
REMARK   23  A    between atoms: _54  and  _56
REMARK   24  A    between atoms: _56  and  _57
REMARK   25  A    between atoms: _59  and  _61
REMARK   26  A    between atoms: _61  and  _62
REMARK   27  A    between atoms: _65  and  _67
REMARK   28  A    between atoms: _67  and  _68
REMARK   29  A    between atoms: _67  and  _70
REMARK   30  A    between atoms: _70  and  _71
REMARK   31  A    between atoms: _74  and  _76
REMARK   32  A    between atoms: _76  and  _77
REMARK   33  A    between atoms: _76  and  _79
REMARK   34  A    between atoms: _79  and  _80
REMARK   35  A    between atoms: _83  and  _85
REMARK   36  A    between atoms: _85  and  _86
REMARK   37  A    between atoms: _85  and  _88
REMARK   38  A    between atoms: _88  and  _89
REMARK   39  A    between atoms: _92  and  _94
REMARK   40  A    between atoms: _94  and  _95
REMARK   41  A    between atoms: _94  and  _97
REMARK   42  A    between atoms: _100  and  _102
REMARK   43  A    between atoms: _102  and  _103
REMARK   44  A    between atoms: _102  and  _105
REMARK   45  A    between atoms: _105  and  _106
REMARK   46  A    between atoms: _106  and  _107
REMARK   47  A    between atoms: _107  and  _108
REMARK   48  A    between atoms: _108  and  _109
REMARK   49  A    between atoms: _113  and  _115
REMARK   50  A    between atoms: _115  and  _116
REMARK   51  A    between atoms: _115  and  _118
REMARK   52  A    between atoms: _118  and  _119
REMARK   53  A    between atoms: _119  and  _120
REMARK   54  A    between atoms: _122  and  _124
REMARK   55  A    between atoms: _124  and  _125
REMARK   56  A    between atoms: _124  and  _127
REMARK   57  A    between atoms: _127  and  _128
REMARK   58  A    between atoms: _131  and  _133
REMARK   59  A    between atoms: _133  and  _134
REMARK   60  A    between atoms: _136  and  _138
REMARK   61  A    between atoms: _138  and  _139
REMARK   62  A    between atoms: _141  and  _143
REMARK   63  A    between atoms: _143  and  _144
REMARK   64  A    between atoms: _143  and  _146
REMARK   65  A    between atoms: _146  and  _147
REMARK   66  A    between atoms: _150  and  _152
REMARK   67  A    between atoms: _152  and  _153
REMARK   68  A    between atoms: _155  and  _157
REMARK   69  A    between atoms: _157  and  _158
REMARK   70  A    between atoms: _160  and  _162
REMARK   71  A    between atoms: _162  and  _163
REMARK   72  A    between atoms: _162  and  _165
REMARK   73  A    between atoms: _165  and  _166
REMARK   74  A    between atoms: _172  and  _174
REMARK   75  A    between atoms: _174  and  _175
REMARK   76  A    between atoms: _174  and  _177
REMARK   77  A    between atoms: _177  and  _178
REMARK   78  A    between atoms: _181  and  _183
REMARK   79  A    between atoms: _183  and  _184
REMARK   80  A    between atoms: _183  and  _186
REMARK   81  A    between atoms: _189  and  _191
REMARK   82  A    between atoms: _191  and  _192
REMARK   83  A    between atoms: _191  and  _194
REMARK   84  A    between atoms: _194  and  _195
REMARK   85  A    between atoms: _199  and  _200
REMARK   86  A    between atoms: _205  and  _207
REMARK   87  A    between atoms: _207  and  _208
REMARK   88  A    between atoms: _207  and  _210
REMARK   89  A    between atoms: _210  and  _211
REMARK   90  A    between atoms: _215  and  _216
REMARK   91  A    between atoms: _221  and  _223
REMARK   92  A    between atoms: _223  and  _224
REMARK   93  A    between atoms: _223  and  _226
REMARK   94  A    between atoms: _229  and  _231
REMARK   95  A    between atoms: _231  and  _232
REMARK   96  A    between atoms: _231  and  _234
REMARK   97  A    between atoms: _234  and  _235
REMARK   98  A    between atoms: _240  and  _242
REMARK   99  A    between atoms: _242  and  _243
REMARK  100  A    between atoms: _242  and  _245
REMARK  101  A    between atoms: _245  and  _246
REMARK  102  A    between atoms: _249  and  _251
REMARK  103  A    between atoms: _251  and  _252
REMARK  104  A    between atoms: _251  and  _254
REMARK  105  A    between atoms: _254  and  _255
REMARK  106  A    between atoms: _258  and  _260
REMARK  107  A    between atoms: _260  and  _261
REMARK  108  A    between atoms: _263  and  _265
REMARK  109  A    between atoms: _265  and  _266
REMARK  110  A    between atoms: _265  and  _268
REMARK  111  A    between atoms: _268  and  _269
REMARK  112  A    between atoms: _269  and  _270
REMARK  113  A    between atoms: _270  and  _271
REMARK  114  A    between atoms: _280  and  _282
REMARK  115  A    between atoms: _282  and  _283
REMARK  116  A    between atoms: _282  and  _285
REMARK  117  A    between atoms: _285  and  _286
REMARK  118  A    between atoms: _291  and  _293
REMARK  119  A    between atoms: _293  and  _294
REMARK  120  A    between atoms: _293  and  _296
REMARK  121  A    between atoms: _296  and  _297
REMARK  122  A    between atoms: _297  and  _298
REMARK  123  A    between atoms: _298  and  _299
REMARK  124  A    between atoms: _308  and  _310
REMARK  125  A    between atoms: _310  and  _311
REMARK  126  A    between atoms: _310  and  _313
REMARK  127  A    between atoms: _313  and  _314
REMARK  128  A    between atoms: _317  and  _319
REMARK  129  A    between atoms: _319  and  _320
REMARK  130  A    between atoms: _319  and  _322
REMARK  131  A    between atoms: _322  and  _323
REMARK  132  A    between atoms: _326  and  _328
REMARK  133  A    between atoms: _328  and  _329
REMARK  134  A    between atoms: _328  and  _331
REMARK  135  A    between atoms: _331  and  _332
REMARK  136  A    between atoms: _335  and  _337
REMARK  137  A    between atoms: _337  and  _338
REMARK  138  A    between atoms: _337  and  _340
REMARK  139  A    between atoms: _340  and  _341
REMARK  140  A    between atoms: _344  and  _346
REMARK  141  A    between atoms: _346  and  _347
REMARK  142  A    between atoms: _349  and  _351
REMARK  143  A    between atoms: _351  and  _352
REMARK  144  A    between atoms: _355  and  _357
REMARK  145  A    between atoms: _357  and  _358
REMARK  146  A    between atoms: _357  and  _360
REMARK  147  A    between atoms: _360  and  _361
REMARK  148  A    between atoms: _364  and  _366
REMARK  149  A    between atoms: _366  and  _367
REMARK  150  A    between atoms: _366  and  _369
REMARK  151  A    between atoms: _369  and  _370
REMARK  152  A    between atoms: _373  and  _375
REMARK  153  A    between atoms: _375  and  _376
REMARK  154  A    between atoms: _375  and  _378
REMARK  155  A    between atoms: _378  and  _379
REMARK  156  A    between atoms: _382  and  _384
REMARK  157  A    between atoms: _384  and  _385
REMARK  158  A    between atoms: _384  and  _387
REMARK  159  A    between atoms: _390  and  _392
REMARK  160  A    between atoms: _392  and  _393
REMARK  161  A    between atoms: _392  and  _395
REMARK  162  A    between atoms: _395  and  _396
REMARK  163  A    between atoms: _396  and  _397
REMARK  164  A    between atoms: _397  and  _398
REMARK  165  A    between atoms: _398  and  _399
REMARK  166  A    between atoms: _403  and  _405
REMARK  167  A    between atoms: _405  and  _406
REMARK  168  A    between atoms: _405  and  _408
REMARK  169  A    between atoms: _408  and  _409
REMARK  170  A    between atoms: _409  and  _410
REMARK  171  A    between atoms: _412  and  _414
REMARK  172  A    between atoms: _414  and  _415
REMARK  173  A    between atoms: _414  and  _417
REMARK  174  A    between atoms: _417  and  _418
REMARK  175  A    between atoms: _421  and  _423
REMARK  176  A    between atoms: _423  and  _424
REMARK  177  A    between atoms: _426  and  _428
REMARK  178  A    between atoms: _428  and  _429
REMARK  179  A    between atoms: _431  and  _433
REMARK  180  A    between atoms: _433  and  _434
REMARK  181  A    between atoms: _433  and  _436
REMARK  182  A    between atoms: _436  and  _437
REMARK  183  A    between atoms: _440  and  _442
REMARK  184  A    between atoms: _442  and  _443
REMARK  185  A    between atoms: _445  and  _447
REMARK  186  A    between atoms: _447  and  _448
REMARK  187  A    between atoms: _450  and  _452
REMARK  188  A    between atoms: _452  and  _453
REMARK  189  A    between atoms: _452  and  _455
REMARK  190  A    between atoms: _455  and  _456
REMARK  191  A    between atoms: _462  and  _464
REMARK  192  A    between atoms: _464  and  _465
REMARK  193  A    between atoms: _464  and  _467
REMARK  194  A    between atoms: _467  and  _468
REMARK  195  A    between atoms: _471  and  _473
REMARK  196  A    between atoms: _473  and  _474
REMARK  197  A    between atoms: _473  and  _476
REMARK  198  A    between atoms: _476  and  _477
REMARK  199  A    between atoms: _480  and  _482
REMARK  200  A    between atoms: _482  and  _483
REMARK  201  A    between atoms: _482  and  _485
REMARK  202  A    between atoms: _485  and  _486
REMARK  203  A    between atoms: _490  and  _491
REMARK  204  A    between atoms: _496  and  _498
REMARK  205  A    between atoms: _498  and  _499
REMARK  206  A    between atoms: _498  and  _501
REMARK  207  A    between atoms: _504  and  _506
REMARK  208  A    between atoms: _506  and  _507
REMARK  209  A    between atoms: _506  and  _509
REMARK  210  A    between atoms: _509  and  _510
REMARK  211  A    between atoms: _515  and  _517
REMARK  212  A    between atoms: _517  and  _518
REMARK  213  A    between atoms: _517  and  _520
REMARK  214  A    between atoms: _520  and  _521
REMARK  215  A    between atoms: _524  and  _526
REMARK  216  A    between atoms: _526  and  _527
REMARK  217  A    between atoms: _529  and  _531
REMARK  218  A    between atoms: _531  and  _532
REMARK  219  A    between atoms: _531  and  _534
REMARK  220  A    between atoms: _534  and  _535
REMARK  221  A    between atoms: _535  and  _536
REMARK  222  A    between atoms: _536  and  _537
REMARK  223  A    between atoms: _546  and  _548
REMARK  224  A    between atoms: _548  and  _549
REMARK  225  A    between atoms: _548  and  _551
REMARK  226  A    between atoms: _551  and  _552
REMARK                            x       y       z     vdW  Elec       q    Type
REMARK                         _______ _______ _______ _____ _____    ______ ____
ROOT
ATOM      1  O   HOH     1      21.320  35.776  17.502  0.00  0.00    +0.000 OA
ENDROOT
TORSDOF 0
REMARK  Name = ../refined-set-2016/5bry/5bry_pocket.pdb
REMARK  226 active torsions:
REMARK  status: ('A' for Active; 'I' for Inactive)
REMARK    1  A    between atoms: _1  and  _3
REMARK    2  A    between atoms: _3  and  _4
REMARK    3  A    between atoms: _3  and  _6
REMARK    4  A    between atoms: _6  and  _7
REMARK    5  A    between atoms: _7  and  _8
REMARK    6  A    between atoms: _8  and  _9
REMARK    7  A    between atoms: _18  and  _20
REMARK    8  A    between atoms: _20  and  _21
REMARK    9  A    between atoms: _20  and  _23
REMARK   10  A    between atoms: _23  and  _24
REMARK   11  A    between atoms: _27  and  _29
REMARK   12  A    between atoms: _29  and  _30
REMARK   13  A    between atoms: _29  and  _32
REMARK   14  A    between atoms: _32  and  _33
REMARK   15  A    between atoms: _36  and  _38
REMARK   16  A    between atoms: _38  and  _39
REMARK   17  A    between atoms: _38  and  _41
REMARK   18  A    between atoms: _41  and  _42
REMARK   19  A    between atoms: _45  and  _47
REMARK   20  A    between atoms: _47  and  _48
REMARK   21  A    between atoms: _47  and  _50
REMARK   22  A    between atoms: _50  and  _51
REMARK   23  A    between atoms: _54  and  _56
REMARK   24  A    between atoms: _56  and  _57
REMARK   25  A    between atoms: _59  and  _61
REMARK   26  A    between atoms: _61  and  _62
REMARK   27  A    between atoms: _65  and  _67
REMARK   28  A    between atoms: _67  and  _68
REMARK   29  A    between atoms: _67  and  _70
REMARK   30  A    between atoms: _70  and  _71
REMARK   31  A    between atoms: _74  and  _76
REMARK   32  A    between atoms: _76  and  _77
REMARK   33  A    between atoms: _76  and  _79
REMARK   34  A    between atoms: _79  and  _80
REMARK   35  A    between atoms: _83  and  _85
REMARK   36  A    between atoms: _85  and  _86
REMARK   37  A    between atoms: _85  and  _88
REMARK   38  A    between atoms: _88  and  _89
REMARK   39  A    between atoms: _92  and  _94
REMARK   40  A    between atoms: _94  and  _95
REMARK   41  A    between atoms: _94  and  _97
REMARK   42  A    between atoms: _100  and  _102
REMARK   43  A    between atoms: _102  and  _103
REMARK   44  A    between atoms: _102  and  _105
REMARK   45  A    between atoms: _105  and  _106
REMARK   46  A    between atoms: _106  and  _107
REMARK   47  A    between atoms: _107  and  _108
REMARK   48  A    between atoms: _108  and  _109
REMARK   49  A    between atoms: _113  and  _115
REMARK   50  A    between atoms: _115  and  _116
REMARK   51  A    between atoms: _115  and  _118
REMARK   52  A    between atoms: _118  and  _119
REMARK   53  A    between atoms: _119  and  _120
REMARK   54  A    between atoms: _122  and  _124
REMARK   55  A    between atoms: _124  and  _125
REMARK   56  A    between atoms: _124  and  _127
REMARK   57  A    between atoms: _127  and  _128
REMARK   58  A    between atoms: _131  and  _133
REMARK   59  A    between atoms: _133  and  _134
REMARK   60  A    between atoms: _136  and  _138
REMARK   61  A    between atoms: _138  and  _139
REMARK   62  A    between atoms: _141  and  _143
REMARK   63  A    between atoms: _143  and  _144
REMARK   64  A    between atoms: _143  and  _146
REMARK   65  A    between atoms: _146  and  _147
REMARK   66  A    between atoms: _150  and  _152
REMARK   67  A    between atoms: _152  and  _153
REMARK   68  A    between atoms: _155  and  _157
REMARK   69  A    between atoms: _157  and  _158
REMARK   70  A    between atoms: _160  and  _162
REMARK   71  A    between atoms: _162  and  _163
REMARK   72  A    between atoms: _162  and  _165
REMARK   73  A    between atoms: _165  and  _166
REMARK   74  A    between atoms: _172  and  _174
REMARK   75  A    between atoms: _174  and  _175
REMARK   76  A    between atoms: _174  and  _177
REMARK   77  A    between atoms: _177  and  _178
REMARK   78  A    between atoms: _181  and  _183
REMARK   79  A    between atoms: _183  and  _184
REMARK   80  A    between atoms: _183  and  _186
REMARK   81  A    between atoms: _189  and  _191
REMARK   82  A    between atoms: _191  and  _192
REMARK   83  A    between atoms: _191  and  _194
REMARK   84  A    between atoms: _194  and  _195
REMARK   85  A    between atoms: _199  and  _200
REMARK   86  A    between atoms: _205  and  _207
REMARK   87  A    between atoms: _207  and  _208
REMARK   88  A    between atoms: _207  and  _210
REMARK   89  A    between atoms: _210  and  _211
REMARK   90  A    between atoms: _215  and  _216
REMARK   91  A    between atoms: _221  and  _223
REMARK   92  A    between atoms: _223  and  _224
REMARK   93  A    between atoms: _223  and  _226
REMARK   94  A    between atoms: _229  and  _231
REMARK   95  A    between atoms: _231  and  _232
REMARK   96  A    between atoms: _231  and  _234
REMARK   97  A    between atoms: _234  and  _235
REMARK   98  A    between atoms: _240  and  _242
REMARK   99  A    between atoms: _242  and  _243
REMARK  100  A    between atoms: _242  and  _245
REMARK  101  A    between atoms: _245  and  _246
REMARK  102  A    between atoms: _249  and  _251
REMARK  103  A    between atoms: _251  and  _252
REMARK  104  A    between atoms: _251  and  _254
REMARK  105  A    between atoms: _254  and  _255
REMARK  106  A    between atoms: _258  and  _260
REMARK  107  A    between atoms: _260  and  _261
REMARK  108  A    between atoms: _263  and  _265
REMARK  109  A    between atoms: _265  and  _266
REMARK  110  A    between atoms: _265  and  _268
REMARK  111  A    between atoms: _268  and  _269
REMARK  112  A    between atoms: _269  and  _270
REMARK  113  A    between atoms: _270  and  _271
REMARK  114  A    between atoms: _280  and  _282
REMARK  115  A    between atoms: _282  and  _283
REMARK  116  A    between atoms: _282  and  _285
REMARK  117  A    between atoms: _285  and  _286
REMARK  118  A    between atoms: _291  and  _293
REMARK  119  A    between atoms: _293  and  _294
REMARK  120  A    between atoms: _293  and  _296
REMARK  121  A    between atoms: _296  and  _297
REMARK  122  A    between atoms: _297  and  _298
REMARK  123  A    between atoms: _298  and  _299
REMARK  124  A    between atoms: _308  and  _310
REMARK  125  A    between atoms: _310  and  _311
REMARK  126  A    between atoms: _310  and  _313
REMARK  127  A    between atoms: _313  and  _314
REMARK  128  A    between atoms: _317  and  _319
REMARK  129  A    between atoms: _319  and  _320
REMARK  130  A    between atoms: _319  and  _322
REMARK  131  A    between atoms: _322  and  _323
REMARK  132  A    between atoms: _326  and  _328
REMARK  133  A    between atoms: _328  and  _329
REMARK  134  A    between atoms: _328  and  _331
REMARK  135  A    between atoms: _331  and  _332
REMARK  136  A    between atoms: _335  and  _337
REMARK  137  A    between atoms: _337  and  _338
REMARK  138  A    between atoms: _337  and  _340
REMARK  139  A    between atoms: _340  and  _341
REMARK  140  A    between atoms: _344  and  _346
REMARK  141  A    between atoms: _346  and  _347
REMARK  142  A    between atoms: _349  and  _351
REMARK  143  A    between atoms: _351  and  _352
REMARK  144  A    between atoms: _355  and  _357
REMARK  145  A    between atoms: _357  and  _358
REMARK  146  A    between atoms: _357  and  _360
REMARK  147  A    between atoms: _360  and  _361
REMARK  148  A    between atoms: _364  and  _366
REMARK  149  A    between atoms: _366  and  _367
REMARK  150  A    between atoms: _366  and  _369
REMARK  151  A    between atoms: _369  and  _370
REMARK  152  A    between atoms: _373  and  _375
REMARK  153  A    between atoms: _375  and  _376
REMARK  154  A    between atoms: _375  and  _378
REMARK  155  A    between atoms: _378  and  _379
REMARK  156  A    between atoms: _382  and  _384
REMARK  157  A    between atoms: _384  and  _385
REMARK  158  A    between atoms: _384  and  _387
REMARK  159  A    between atoms: _390  and  _392
REMARK  160  A    between atoms: _392  and  _393
REMARK  161  A    between atoms: _392  and  _395
REMARK  162  A    between atoms: _395  and  _396
REMARK  163  A    between atoms: _396  and  _397
REMARK  164  A    between atoms: _397  and  _398
REMARK  165  A    between atoms: _398  and  _399
REMARK  166  A    between atoms: _403  and  _405
REMARK  167  A    between atoms: _405  and  _406
REMARK  168  A    between atoms: _405  and  _408
REMARK  169  A    between atoms: _408  and  _409
REMARK  170  A    between atoms: _409  and  _410
REMARK  171  A    between atoms: _412  and  _414
REMARK  172  A    between atoms: _414  and  _415
REMARK  173  A    between atoms: _414  and  _417
REMARK  174  A    between atoms: _417  and  _418
REMARK  175  A    between atoms: _421  and  _423
REMARK  176  A    between atoms: _423  and  _424
REMARK  177  A    between atoms: _426  and  _428
REMARK  178  A    between atoms: _428  and  _429
REMARK  179  A    between atoms: _431  and  _433
REMARK  180  A    between atoms: _433  and  _434
REMARK  181  A    between atoms: _433  and  _436
REMARK  182  A    between atoms: _436  and  _437
REMARK  183  A    between atoms: _440  and  _442
REMARK  184  A    between atoms: _442  and  _443
REMARK  185  A    between atoms: _445  and  _447
REMARK  186  A    between atoms: _447  and  _448
REMARK  187  A    between atoms: _450  and  _452
REMARK  188  A    between atoms: _452  and  _453
REMARK  189  A    between atoms: _452  and  _455
REMARK  190  A    between atoms: _455  and  _456
REMARK  191  A    between atoms: _462  and  _464
REMARK  192  A    between atoms: _464  and  _465
REMARK  193  A    between atoms: _464  and  _467
REMARK  194  A    between atoms: _467  and  _468
REMARK  195  A    between atoms: _471  and  _473
REMARK  196  A    between atoms: _473  and  _474
REMARK  197  A    between atoms: _473  and  _476
REMARK  198  A    between atoms: _476  and  _477
REMARK  199  A    between atoms: _480  and  _482
REMARK  200  A    between atoms: _482  and  _483
REMARK  201  A    between atoms: _482  and  _485
REMARK  202  A    between atoms: _485  and  _486
REMARK  203  A    between atoms: _490  and  _491
REMARK  204  A    between atoms: _496  and  _498
REMARK  205  A    between atoms: _498  and  _499
REMARK  206  A    between atoms: _498  and  _501
REMARK  207  A    between atoms: _504  and  _506
REMARK  208  A    between atoms: _506  and  _507
REMARK  209  A    between atoms: _506  and  _509
REMARK  210  A    between atoms: _509  and  _510
REMARK  211  A    between atoms: _515  and  _517
REMARK  212  A    between atoms: _517  and  _518
REMARK  213  A    between atoms: _517  and  _520
REMARK  214  A    between atoms: _520  and  _521
REMARK  215  A    between atoms: _524  and  _526
REMARK  216  A    between atoms: _526  and  _527
REMARK  217  A    between atoms: _529  and  _531
REMARK  218  A    between atoms: _531  and  _532
REMARK  219  A    between atoms: _531  and  _534
REMARK  220  A    between atoms: _534  and  _535
REMARK  221  A    between atoms: _535  and  _536
REMARK  222  A    between atoms: _536  and  _537
REMARK  223  A    between atoms: _546  and  _548
REMARK  224  A    between atoms: _548  and  _549
REMARK  225  A    between atoms: _548  and  _551
REMARK  226  A    between atoms: _551  and  _552
REMARK                            x       y       z     vdW  Elec       q    Type
REMARK                         _______ _______ _______ _____ _____    ______ ____
ROOT
ATOM      1  O   HOH     1      20.177  28.835  21.146  0.00  0.00    +0.000 OA
ENDROOT
TORSDOF 0
REMARK  Name = ../refined-set-2016/5bry/5bry_pocket.pdb
REMARK  226 active torsions:
REMARK  status: ('A' for Active; 'I' for Inactive)
REMARK    1  A    between atoms: _1  and  _3
REMARK    2  A    between atoms: _3  and  _4
REMARK    3  A    between atoms: _3  and  _6
REMARK    4  A    between atoms: _6  and  _7
REMARK    5  A    between atoms: _7  and  _8
REMARK    6  A    between atoms: _8  and  _9
REMARK    7  A    between atoms: _18  and  _20
REMARK    8  A    between atoms: _20  and  _21
REMARK    9  A    between atoms: _20  and  _23
REMARK   10  A    between atoms: _23  and  _24
REMARK   11  A    between atoms: _27  and  _29
REMARK   12  A    between atoms: _29  and  _30
REMARK   13  A    between atoms: _29  and  _32
REMARK   14  A    between atoms: _32  and  _33
REMARK   15  A    between atoms: _36  and  _38
REMARK   16  A    between atoms: _38  and  _39
REMARK   17  A    between atoms: _38  and  _41
REMARK   18  A    between atoms: _41  and  _42
REMARK   19  A    between atoms: _45  and  _47
REMARK   20  A    between atoms: _47  and  _48
REMARK   21  A    between atoms: _47  and  _50
REMARK   22  A    between atoms: _50  and  _51
REMARK   23  A    between atoms: _54  and  _56
REMARK   24  A    between atoms: _56  and  _57
REMARK   25  A    between atoms: _59  and  _61
REMARK   26  A    between atoms: _61  and  _62
REMARK   27  A    between atoms: _65  and  _67
REMARK   28  A    between atoms: _67  and  _68
REMARK   29  A    between atoms: _67  and  _70
REMARK   30  A    between atoms: _70  and  _71
REMARK   31  A    between atoms: _74  and  _76
REMARK   32  A    between atoms: _76  and  _77
REMARK   33  A    between atoms: _76  and  _79
REMARK   34  A    between atoms: _79  and  _80
REMARK   35  A    between atoms: _83  and  _85
REMARK   36  A    between atoms: _85  and  _86
REMARK   37  A    between atoms: _85  and  _88
REMARK   38  A    between atoms: _88  and  _89
REMARK   39  A    between atoms: _92  and  _94
REMARK   40  A    between atoms: _94  and  _95
REMARK   41  A    between atoms: _94  and  _97
REMARK   42  A    between atoms: _100  and  _102
REMARK   43  A    between atoms: _102  and  _103
REMARK   44  A    between atoms: _102  and  _105
REMARK   45  A    between atoms: _105  and  _106
REMARK   46  A    between atoms: _106  and  _107
REMARK   47  A    between atoms: _107  and  _108
REMARK   48  A    between atoms: _108  and  _109
REMARK   49  A    between atoms: _113  and  _115
REMARK   50  A    between atoms: _115  and  _116
REMARK   51  A    between atoms: _115  and  _118
REMARK   52  A    between atoms: _118  and  _119
REMARK   53  A    between atoms: _119  and  _120
REMARK   54  A    between atoms: _122  and  _124
REMARK   55  A    between atoms: _124  and  _125
REMARK   56  A    between atoms: _124  and  _127
REMARK   57  A    between atoms: _127  and  _128
REMARK   58  A    between atoms: _131  and  _133
REMARK   59  A    between atoms: _133  and  _134
REMARK   60  A    between atoms: _136  and  _138
REMARK   61  A    between atoms: _138  and  _139
REMARK   62  A    between atoms: _141  and  _143
REMARK   63  A    between atoms: _143  and  _144
REMARK   64  A    between atoms: _143  and  _146
REMARK   65  A    between atoms: _146  and  _147
REMARK   66  A    between atoms: _150  and  _152
REMARK   67  A    between atoms: _152  and  _153
REMARK   68  A    between atoms: _155  and  _157
REMARK   69  A    between atoms: _157  and  _158
REMARK   70  A    between atoms: _160  and  _162
REMARK   71  A    between atoms: _162  and  _163
REMARK   72  A    between atoms: _162  and  _165
REMARK   73  A    between atoms: _165  and  _166
REMARK   74  A    between atoms: _172  and  _174
REMARK   75  A    between atoms: _174  and  _175
REMARK   76  A    between atoms: _174  and  _177
REMARK   77  A    between atoms: _177  and  _178
REMARK   78  A    between atoms: _181  and  _183
REMARK   79  A    between atoms: _183  and  _184
REMARK   80  A    between atoms: _183  and  _186
REMARK   81  A    between atoms: _189  and  _191
REMARK   82  A    between atoms: _191  and  _192
REMARK   83  A    between atoms: _191  and  _194
REMARK   84  A    between atoms: _194  and  _195
REMARK   85  A    between atoms: _199  and  _200
REMARK   86  A    between atoms: _205  and  _207
REMARK   87  A    between atoms: _207  and  _208
REMARK   88  A    between atoms: _207  and  _210
REMARK   89  A    between atoms: _210  and  _211
REMARK   90  A    between atoms: _215  and  _216
REMARK   91  A    between atoms: _221  and  _223
REMARK   92  A    between atoms: _223  and  _224
REMARK   93  A    between atoms: _223  and  _226
REMARK   94  A    between atoms: _229  and  _231
REMARK   95  A    between atoms: _231  and  _232
REMARK   96  A    between atoms: _231  and  _234
REMARK   97  A    between atoms: _234  and  _235
REMARK   98  A    between atoms: _240  and  _242
REMARK   99  A    between atoms: _242  and  _243
REMARK  100  A    between atoms: _242  and  _245
REMARK  101  A    between atoms: _245  and  _246
REMARK  102  A    between atoms: _249  and  _251
REMARK  103  A    between atoms: _251  and  _252
REMARK  104  A    between atoms: _251  and  _254
REMARK  105  A    between atoms: _254  and  _255
REMARK  106  A    between atoms: _258  and  _260
REMARK  107  A    between atoms: _260  and  _261
REMARK  108  A    between atoms: _263  and  _265
REMARK  109  A    between atoms: _265  and  _266
REMARK  110  A    between atoms: _265  and  _268
REMARK  111  A    between atoms: _268  and  _269
REMARK  112  A    between atoms: _269  and  _270
REMARK  113  A    between atoms: _270  and  _271
REMARK  114  A    between atoms: _280  and  _282
REMARK  115  A    between atoms: _282  and  _283
REMARK  116  A    between atoms: _282  and  _285
REMARK  117  A    between atoms: _285  and  _286
REMARK  118  A    between atoms: _291  and  _293
REMARK  119  A    between atoms: _293  and  _294
REMARK  120  A    between atoms: _293  and  _296
REMARK  121  A    between atoms: _296  and  _297
REMARK  122  A    between atoms: _297  and  _298
REMARK  123  A    between atoms: _298  and  _299
REMARK  124  A    between atoms: _308  and  _310
REMARK  125  A    between atoms: _310  and  _311
REMARK  126  A    between atoms: _310  and  _313
REMARK  127  A    between atoms: _313  and  _314
REMARK  128  A    between atoms: _317  and  _319
REMARK  129  A    between atoms: _319  and  _320
REMARK  130  A    between atoms: _319  and  _322
REMARK  131  A    between atoms: _322  and  _323
REMARK  132  A    between atoms: _326  and  _328
REMARK  133  A    between atoms: _328  and  _329
REMARK  134  A    between atoms: _328  and  _331
REMARK  135  A    between atoms: _331  and  _332
REMARK  136  A    between atoms: _335  and  _337
REMARK  137  A    between atoms: _337  and  _338
REMARK  138  A    between atoms: _337  and  _340
REMARK  139  A    between atoms: _340  and  _341
REMARK  140  A    between atoms: _344  and  _346
REMARK  141  A    between atoms: _346  and  _347
REMARK  142  A    between atoms: _349  and  _351
REMARK  143  A    between atoms: _351  and  _352
REMARK  144  A    between atoms: _355  and  _357
REMARK  145  A    between atoms: _357  and  _358
REMARK  146  A    between atoms: _357  and  _360
REMARK  147  A    between atoms: _360  and  _361
REMARK  148  A    between atoms: _364  and  _366
REMARK  149  A    between atoms: _366  and  _367
REMARK  150  A    between atoms: _366  and  _369
REMARK  151  A    between atoms: _369  and  _370
REMARK  152  A    between atoms: _373  and  _375
REMARK  153  A    between atoms: _375  and  _376
REMARK  154  A    between atoms: _375  and  _378
REMARK  155  A    between atoms: _378  and  _379
REMARK  156  A    between atoms: _382  and  _384
REMARK  157  A    between atoms: _384  and  _385
REMARK  158  A    between atoms: _384  and  _387
REMARK  159  A    between atoms: _390  and  _392
REMARK  160  A    between atoms: _392  and  _393
REMARK  161  A    between atoms: _392  and  _395
REMARK  162  A    between atoms: _395  and  _396
REMARK  163  A    between atoms: _396  and  _397
REMARK  164  A    between atoms: _397  and  _398
REMARK  165  A    between atoms: _398  and  _399
REMARK  166  A    between atoms: _403  and  _405
REMARK  167  A    between atoms: _405  and  _406
REMARK  168  A    between atoms: _405  and  _408
REMARK  169  A    between atoms: _408  and  _409
REMARK  170  A    between atoms: _409  and  _410
REMARK  171  A    between atoms: _412  and  _414
REMARK  172  A    between atoms: _414  and  _415
REMARK  173  A    between atoms: _414  and  _417
REMARK  174  A    between atoms: _417  and  _418
REMARK  175  A    between atoms: _421  and  _423
REMARK  176  A    between atoms: _423  and  _424
REMARK  177  A    between atoms: _426  and  _428
REMARK  178  A    between atoms: _428  and  _429
REMARK  179  A    between atoms: _431  and  _433
REMARK  180  A    between atoms: _433  and  _434
REMARK  181  A    between atoms: _433  and  _436
REMARK  182  A    between atoms: _436  and  _437
REMARK  183  A    between atoms: _440  and  _442
REMARK  184  A    between atoms: _442  and  _443
REMARK  185  A    between atoms: _445  and  _447
REMARK  186  A    between atoms: _447  and  _448
REMARK  187  A    between atoms: _450  and  _452
REMARK  188  A    between atoms: _452  and  _453
REMARK  189  A    between atoms: _452  and  _455
REMARK  190  A    between atoms: _455  and  _456
REMARK  191  A    between atoms: _462  and  _464
REMARK  192  A    between atoms: _464  and  _465
REMARK  193  A    between atoms: _464  and  _467
REMARK  194  A    between atoms: _467  and  _468
REMARK  195  A    between atoms: _471  and  _473
REMARK  196  A    between atoms: _473  and  _474
REMARK  197  A    between atoms: _473  and  _476
REMARK  198  A    between atoms: _476  and  _477
REMARK  199  A    between atoms: _480  and  _482
REMARK  200  A    between atoms: _482  and  _483
REMARK  201  A    between atoms: _482  and  _485
REMARK  202  A    between atoms: _485  and  _486
REMARK  203  A    between atoms: _490  and  _491
REMARK  204  A    between atoms: _496  and  _498
REMARK  205  A    between atoms: _498  and  _499
REMARK  206  A    between atoms: _498  and  _501
REMARK  207  A    between atoms: _504  and  _506
REMARK  208  A    between atoms: _506  and  _507
REMARK  209  A    between atoms: _506  and  _509
REMARK  210  A    between atoms: _509  and  _510
REMARK  211  A    between atoms: _515  and  _517
REMARK  212  A    between atoms: _517  and  _518
REMARK  213  A    between atoms: _517  and  _520
REMARK  214  A    between atoms: _520  and  _521
REMARK  215  A    between atoms: _524  and  _526
REMARK  216  A    between atoms: _526  and  _527
REMARK  217  A    between atoms: _529  and  _531
REMARK  218  A    between atoms: _531  and  _532
REMARK  219  A    between atoms: _531  and  _534
REMARK  220  A    between atoms: _534  and  _535
REMARK  221  A    between atoms: _535  and  _536
REMARK  222  A    between atoms: _536  and  _537
REMARK  223  A    between atoms: _546  and  _548
REMARK  224  A    between atoms: _548  and  _549
REMARK  225  A    between atoms: _548  and  _551
REMARK  226  A    between atoms: _551  and  _552
REMARK                            x       y       z     vdW  Elec       q    Type
REMARK                         _______ _______ _______ _____ _____    ______ ____
ROOT
ATOM      1  O   HOH     1       9.227  24.640   7.238  0.00  0.00    +0.000 OA
ENDROOT
TORSDOF 0
REMARK  Name = ../refined-set-2016/5bry/5bry_pocket.pdb
REMARK  226 active torsions:
REMARK  status: ('A' for Active; 'I' for Inactive)
REMARK    1  A    between atoms: _1  and  _3
REMARK    2  A    between atoms: _3  and  _4
REMARK    3  A    between atoms: _3  and  _6
REMARK    4  A    between atoms: _6  and  _7
REMARK    5  A    between atoms: _7  and  _8
REMARK    6  A    between atoms: _8  and  _9
REMARK    7  A    between atoms: _18  and  _20
REMARK    8  A    between atoms: _20  and  _21
REMARK    9  A    between atoms: _20  and  _23
REMARK   10  A    between atoms: _23  and  _24
REMARK   11  A    between atoms: _27  and  _29
REMARK   12  A    between atoms: _29  and  _30
REMARK   13  A    between atoms: _29  and  _32
REMARK   14  A    between atoms: _32  and  _33
REMARK   15  A    between atoms: _36  and  _38
REMARK   16  A    between atoms: _38  and  _39
REMARK   17  A    between atoms: _38  and  _41
REMARK   18  A    between atoms: _41  and  _42
REMARK   19  A    between atoms: _45  and  _47
REMARK   20  A    between atoms: _47  and  _48
REMARK   21  A    between atoms: _47  and  _50
REMARK   22  A    between atoms: _50  and  _51
REMARK   23  A    between atoms: _54  and  _56
REMARK   24  A    between atoms: _56  and  _57
REMARK   25  A    between atoms: _59  and  _61
REMARK   26  A    between atoms: _61  and  _62
REMARK   27  A    between atoms: _65  and  _67
REMARK   28  A    between atoms: _67  and  _68
REMARK   29  A    between atoms: _67  and  _70
REMARK   30  A    between atoms: _70  and  _71
REMARK   31  A    between atoms: _74  and  _76
REMARK   32  A    between atoms: _76  and  _77
REMARK   33  A    between atoms: _76  and  _79
REMARK   34  A    between atoms: _79  and  _80
REMARK   35  A    between atoms: _83  and  _85
REMARK   36  A    between atoms: _85  and  _86
REMARK   37  A    between atoms: _85  and  _88
REMARK   38  A    between atoms: _88  and  _89
REMARK   39  A    between atoms: _92  and  _94
REMARK   40  A    between atoms: _94  and  _95
REMARK   41  A    between atoms: _94  and  _97
REMARK   42  A    between atoms: _100  and  _102
REMARK   43  A    between atoms: _102  and  _103
REMARK   44  A    between atoms: _102  and  _105
REMARK   45  A    between atoms: _105  and  _106
REMARK   46  A    between atoms: _106  and  _107
REMARK   47  A    between atoms: _107  and  _108
REMARK   48  A    between atoms: _108  and  _109
REMARK   49  A    between atoms: _113  and  _115
REMARK   50  A    between atoms: _115  and  _116
REMARK   51  A    between atoms: _115  and  _118
REMARK   52  A    between atoms: _118  and  _119
REMARK   53  A    between atoms: _119  and  _120
REMARK   54  A    between atoms: _122  and  _124
REMARK   55  A    between atoms: _124  and  _125
REMARK   56  A    between atoms: _124  and  _127
REMARK   57  A    between atoms: _127  and  _128
REMARK   58  A    between atoms: _131  and  _133
REMARK   59  A    between atoms: _133  and  _134
REMARK   60  A    between atoms: _136  and  _138
REMARK   61  A    between atoms: _138  and  _139
REMARK   62  A    between atoms: _141  and  _143
REMARK   63  A    between atoms: _143  and  _144
REMARK   64  A    between atoms: _143  and  _146
REMARK   65  A    between atoms: _146  and  _147
REMARK   66  A    between atoms: _150  and  _152
REMARK   67  A    between atoms: _152  and  _153
REMARK   68  A    between atoms: _155  and  _157
REMARK   69  A    between atoms: _157  and  _158
REMARK   70  A    between atoms: _160  and  _162
REMARK   71  A    between atoms: _162  and  _163
REMARK   72  A    between atoms: _162  and  _165
REMARK   73  A    between atoms: _165  and  _166
REMARK   74  A    between atoms: _172  and  _174
REMARK   75  A    between atoms: _174  and  _175
REMARK   76  A    between atoms: _174  and  _177
REMARK   77  A    between atoms: _177  and  _178
REMARK   78  A    between atoms: _181  and  _183
REMARK   79  A    between atoms: _183  and  _184
REMARK   80  A    between atoms: _183  and  _186
REMARK   81  A    between atoms: _189  and  _191
REMARK   82  A    between atoms: _191  and  _192
REMARK   83  A    between atoms: _191  and  _194
REMARK   84  A    between atoms: _194  and  _195
REMARK   85  A    between atoms: _199  and  _200
REMARK   86  A    between atoms: _205  and  _207
REMARK   87  A    between atoms: _207  and  _208
REMARK   88  A    between atoms: _207  and  _210
REMARK   89  A    between atoms: _210  and  _211
REMARK   90  A    between atoms: _215  and  _216
REMARK   91  A    between atoms: _221  and  _223
REMARK   92  A    between atoms: _223  and  _224
REMARK   93  A    between atoms: _223  and  _226
REMARK   94  A    between atoms: _229  and  _231
REMARK   95  A    between atoms: _231  and  _232
REMARK   96  A    between atoms: _231  and  _234
REMARK   97  A    between atoms: _234  and  _235
REMARK   98  A    between atoms: _240  and  _242
REMARK   99  A    between atoms: _242  and  _243
REMARK  100  A    between atoms: _242  and  _245
REMARK  101  A    between atoms: _245  and  _246
REMARK  102  A    between atoms: _249  and  _251
REMARK  103  A    between atoms: _251  and  _252
REMARK  104  A    between atoms: _251  and  _254
REMARK  105  A    between atoms: _254  and  _255
REMARK  106  A    between atoms: _258  and  _260
REMARK  107  A    between atoms: _260  and  _261
REMARK  108  A    between atoms: _263  and  _265
REMARK  109  A    between atoms: _265  and  _266
REMARK  110  A    between atoms: _265  and  _268
REMARK  111  A    between atoms: _268  and  _269
REMARK  112  A    between atoms: _269  and  _270
REMARK  113  A    between atoms: _270  and  _271
REMARK  114  A    between atoms: _280  and  _282
REMARK  115  A    between atoms: _282  and  _283
REMARK  116  A    between atoms: _282  and  _285
REMARK  117  A    between atoms: _285  and  _286
REMARK  118  A    between atoms: _291  and  _293
REMARK  119  A    between atoms: _293  and  _294
REMARK  120  A    between atoms: _293  and  _296
REMARK  121  A    between atoms: _296  and  _297
REMARK  122  A    between atoms: _297  and  _298
REMARK  123  A    between atoms: _298  and  _299
REMARK  124  A    between atoms: _308  and  _310
REMARK  125  A    between atoms: _310  and  _311
REMARK  126  A    between atoms: _310  and  _313
REMARK  127  A    between atoms: _313  and  _314
REMARK  128  A    between atoms: _317  and  _319
REMARK  129  A    between atoms: _319  and  _320
REMARK  130  A    between atoms: _319  and  _322
REMARK  131  A    between atoms: _322  and  _323
REMARK  132  A    between atoms: _326  and  _328
REMARK  133  A    between atoms: _328  and  _329
REMARK  134  A    between atoms: _328  and  _331
REMARK  135  A    between atoms: _331  and  _332
REMARK  136  A    between atoms: _335  and  _337
REMARK  137  A    between atoms: _337  and  _338
REMARK  138  A    between atoms: _337  and  _340
REMARK  139  A    between atoms: _340  and  _341
REMARK  140  A    between atoms: _344  and  _346
REMARK  141  A    between atoms: _346  and  _347
REMARK  142  A    between atoms: _349  and  _351
REMARK  143  A    between atoms: _351  and  _352
REMARK  144  A    between atoms: _355  and  _357
REMARK  145  A    between atoms: _357  and  _358
REMARK  146  A    between atoms: _357  and  _360
REMARK  147  A    between atoms: _360  and  _361
REMARK  148  A    between atoms: _364  and  _366
REMARK  149  A    between atoms: _366  and  _367
REMARK  150  A    between atoms: _366  and  _369
REMARK  151  A    between atoms: _369  and  _370
REMARK  152  A    between atoms: _373  and  _375
REMARK  153  A    between atoms: _375  and  _376
REMARK  154  A    between atoms: _375  and  _378
REMARK  155  A    between atoms: _378  and  _379
REMARK  156  A    between atoms: _382  and  _384
REMARK  157  A    between atoms: _384  and  _385
REMARK  158  A    between atoms: _384  and  _387
REMARK  159  A    between atoms: _390  and  _392
REMARK  160  A    between atoms: _392  and  _393
REMARK  161  A    between atoms: _392  and  _395
REMARK  162  A    between atoms: _395  and  _396
REMARK  163  A    between atoms: _396  and  _397
REMARK  164  A    between atoms: _397  and  _398
REMARK  165  A    between atoms: _398  and  _399
REMARK  166  A    between atoms: _403  and  _405
REMARK  167  A    between atoms: _405  and  _406
REMARK  168  A    between atoms: _405  and  _408
REMARK  169  A    between atoms: _408  and  _409
REMARK  170  A    between atoms: _409  and  _410
REMARK  171  A    between atoms: _412  and  _414
REMARK  172  A    between atoms: _414  and  _415
REMARK  173  A    between atoms: _414  and  _417
REMARK  174  A    between atoms: _417  and  _418
REMARK  175  A    between atoms: _421  and  _423
REMARK  176  A    between atoms: _423  and  _424
REMARK  177  A    between atoms: _426  and  _428
REMARK  178  A    between atoms: _428  and  _429
REMARK  179  A    between atoms: _431  and  _433
REMARK  180  A    between atoms: _433  and  _434
REMARK  181  A    between atoms: _433  and  _436
REMARK  182  A    between atoms: _436  and  _437
REMARK  183  A    between atoms: _440  and  _442
REMARK  184  A    between atoms: _442  and  _443
REMARK  185  A    between atoms: _445  and  _447
REMARK  186  A    between atoms: _447  and  _448
REMARK  187  A    between atoms: _450  and  _452
REMARK  188  A    between atoms: _452  and  _453
REMARK  189  A    between atoms: _452  and  _455
REMARK  190  A    between atoms: _455  and  _456
REMARK  191  A    between atoms: _462  and  _464
REMARK  192  A    between atoms: _464  and  _465
REMARK  193  A    between atoms: _464  and  _467
REMARK  194  A    between atoms: _467  and  _468
REMARK  195  A    between atoms: _471  and  _473
REMARK  196  A    between atoms: _473  and  _474
REMARK  197  A    between atoms: _473  and  _476
REMARK  198  A    between atoms: _476  and  _477
REMARK  199  A    between atoms: _480  and  _482
REMARK  200  A    between atoms: _482  and  _483
REMARK  201  A    between atoms: _482  and  _485
REMARK  202  A    between atoms: _485  and  _486
REMARK  203  A    between atoms: _490  and  _491
REMARK  204  A    between atoms: _496  and  _498
REMARK  205  A    between atoms: _498  and  _499
REMARK  206  A    between atoms: _498  and  _501
REMARK  207  A    between atoms: _504  and  _506
REMARK  208  A    between atoms: _506  and  _507
REMARK  209  A    between atoms: _506  and  _509
REMARK  210  A    between atoms: _509  and  _510
REMARK  211  A    between atoms: _515  and  _517
REMARK  212  A    between atoms: _517  and  _518
REMARK  213  A    between atoms: _517  and  _520
REMARK  214  A    between atoms: _520  and  _521
REMARK  215  A    between atoms: _524  and  _526
REMARK  216  A    between atoms: _526  and  _527
REMARK  217  A    between atoms: _529  and  _531
REMARK  218  A    between atoms: _531  and  _532
REMARK  219  A    between atoms: _531  and  _534
REMARK  220  A    between atoms: _534  and  _535
REMARK  221  A    between atoms: _535  and  _536
REMARK  222  A    between atoms: _536  and  _537
REMARK  223  A    between atoms: _546  and  _548
REMARK  224  A    between atoms: _548  and  _549
REMARK  225  A    between atoms: _548  and  _551
REMARK  226  A    between atoms: _551  and  _552
REMARK                            x       y       z     vdW  Elec       q    Type
REMARK                         _______ _______ _______ _____ _____    ______ ____
ROOT
ATOM      1  O   HOH     1      25.683  30.713  17.040  0.00  0.00    +0.000 OA
ENDROOT
TORSDOF 0
REMARK  Name = ../refined-set-2016/5bry/5bry_pocket.pdb
REMARK  226 active torsions:
REMARK  status: ('A' for Active; 'I' for Inactive)
REMARK    1  A    between atoms: _1  and  _3
REMARK    2  A    between atoms: _3  and  _4
REMARK    3  A    between atoms: _3  and  _6
REMARK    4  A    between atoms: _6  and  _7
REMARK    5  A    between atoms: _7  and  _8
REMARK    6  A    between atoms: _8  and  _9
REMARK    7  A    between atoms: _18  and  _20
REMARK    8  A    between atoms: _20  and  _21
REMARK    9  A    between atoms: _20  and  _23
REMARK   10  A    between atoms: _23  and  _24
REMARK   11  A    between atoms: _27  and  _29
REMARK   12  A    between atoms: _29  and  _30
REMARK   13  A    between atoms: _29  and  _32
REMARK   14  A    between atoms: _32  and  _33
REMARK   15  A    between atoms: _36  and  _38
REMARK   16  A    between atoms: _38  and  _39
REMARK   17  A    between atoms: _38  and  _41
REMARK   18  A    between atoms: _41  and  _42
REMARK   19  A    between atoms: _45  and  _47
REMARK   20  A    between atoms: _47  and  _48
REMARK   21  A    between atoms: _47  and  _50
REMARK   22  A    between atoms: _50  and  _51
REMARK   23  A    between atoms: _54  and  _56
REMARK   24  A    between atoms: _56  and  _57
REMARK   25  A    between atoms: _59  and  _61
REMARK   26  A    between atoms: _61  and  _62
REMARK   27  A    between atoms: _65  and  _67
REMARK   28  A    between atoms: _67  and  _68
REMARK   29  A    between atoms: _67  and  _70
REMARK   30  A    between atoms: _70  and  _71
REMARK   31  A    between atoms: _74  and  _76
REMARK   32  A    between atoms: _76  and  _77
REMARK   33  A    between atoms: _76  and  _79
REMARK   34  A    between atoms: _79  and  _80
REMARK   35  A    between atoms: _83  and  _85
REMARK   36  A    between atoms: _85  and  _86
REMARK   37  A    between atoms: _85  and  _88
REMARK   38  A    between atoms: _88  and  _89
REMARK   39  A    between atoms: _92  and  _94
REMARK   40  A    between atoms: _94  and  _95
REMARK   41  A    between atoms: _94  and  _97
REMARK   42  A    between atoms: _100  and  _102
REMARK   43  A    between atoms: _102  and  _103
REMARK   44  A    between atoms: _102  and  _105
REMARK   45  A    between atoms: _105  and  _106
REMARK   46  A    between atoms: _106  and  _107
REMARK   47  A    between atoms: _107  and  _108
REMARK   48  A    between atoms: _108  and  _109
REMARK   49  A    between atoms: _113  and  _115
REMARK   50  A    between atoms: _115  and  _116
REMARK   51  A    between atoms: _115  and  _118
REMARK   52  A    between atoms: _118  and  _119
REMARK   53  A    between atoms: _119  and  _120
REMARK   54  A    between atoms: _122  and  _124
REMARK   55  A    between atoms: _124  and  _125
REMARK   56  A    between atoms: _124  and  _127
REMARK   57  A    between atoms: _127  and  _128
REMARK   58  A    between atoms: _131  and  _133
REMARK   59  A    between atoms: _133  and  _134
REMARK   60  A    between atoms: _136  and  _138
REMARK   61  A    between atoms: _138  and  _139
REMARK   62  A    between atoms: _141  and  _143
REMARK   63  A    between atoms: _143  and  _144
REMARK   64  A    between atoms: _143  and  _146
REMARK   65  A    between atoms: _146  and  _147
REMARK   66  A    between atoms: _150  and  _152
REMARK   67  A    between atoms: _152  and  _153
REMARK   68  A    between atoms: _155  and  _157
REMARK   69  A    between atoms: _157  and  _158
REMARK   70  A    between atoms: _160  and  _162
REMARK   71  A    between atoms: _162  and  _163
REMARK   72  A    between atoms: _162  and  _165
REMARK   73  A    between atoms: _165  and  _166
REMARK   74  A    between atoms: _172  and  _174
REMARK   75  A    between atoms: _174  and  _175
REMARK   76  A    between atoms: _174  and  _177
REMARK   77  A    between atoms: _177  and  _178
REMARK   78  A    between atoms: _181  and  _183
REMARK   79  A    between atoms: _183  and  _184
REMARK   80  A    between atoms: _183  and  _186
REMARK   81  A    between atoms: _189  and  _191
REMARK   82  A    between atoms: _191  and  _192
REMARK   83  A    between atoms: _191  and  _194
REMARK   84  A    between atoms: _194  and  _195
REMARK   85  A    between atoms: _199  and  _200
REMARK   86  A    between atoms: _205  and  _207
REMARK   87  A    between atoms: _207  and  _208
REMARK   88  A    between atoms: _207  and  _210
REMARK   89  A    between atoms: _210  and  _211
REMARK   90  A    between atoms: _215  and  _216
REMARK   91  A    between atoms: _221  and  _223
REMARK   92  A    between atoms: _223  and  _224
REMARK   93  A    between atoms: _223  and  _226
REMARK   94  A    between atoms: _229  and  _231
REMARK   95  A    between atoms: _231  and  _232
REMARK   96  A    between atoms: _231  and  _234
REMARK   97  A    between atoms: _234  and  _235
REMARK   98  A    between atoms: _240  and  _242
REMARK   99  A    between atoms: _242  and  _243
REMARK  100  A    between atoms: _242  and  _245
REMARK  101  A    between atoms: _245  and  _246
REMARK  102  A    between atoms: _249  and  _251
REMARK  103  A    between atoms: _251  and  _252
REMARK  104  A    between atoms: _251  and  _254
REMARK  105  A    between atoms: _254  and  _255
REMARK  106  A    between atoms: _258  and  _260
REMARK  107  A    between atoms: _260  and  _261
REMARK  108  A    between atoms: _263  and  _265
REMARK  109  A    between atoms: _265  and  _266
REMARK  110  A    between atoms: _265  and  _268
REMARK  111  A    between atoms: _268  and  _269
REMARK  112  A    between atoms: _269  and  _270
REMARK  113  A    between atoms: _270  and  _271
REMARK  114  A    between atoms: _280  and  _282
REMARK  115  A    between atoms: _282  and  _283
REMARK  116  A    between atoms: _282  and  _285
REMARK  117  A    between atoms: _285  and  _286
REMARK  118  A    between atoms: _291  and  _293
REMARK  119  A    between atoms: _293  and  _294
REMARK  120  A    between atoms: _293  and  _296
REMARK  121  A    between atoms: _296  and  _297
REMARK  122  A    between atoms: _297  and  _298
REMARK  123  A    between atoms: _298  and  _299
REMARK  124  A    between atoms: _308  and  _310
REMARK  125  A    between atoms: _310  and  _311
REMARK  126  A    between atoms: _310  and  _313
REMARK  127  A    between atoms: _313  and  _314
REMARK  128  A    between atoms: _317  and  _319
REMARK  129  A    between atoms: _319  and  _320
REMARK  130  A    between atoms: _319  and  _322
REMARK  131  A    between atoms: _322  and  _323
REMARK  132  A    between atoms: _326  and  _328
REMARK  133  A    between atoms: _328  and  _329
REMARK  134  A    between atoms: _328  and  _331
REMARK  135  A    between atoms: _331  and  _332
REMARK  136  A    between atoms: _335  and  _337
REMARK  137  A    between atoms: _337  and  _338
REMARK  138  A    between atoms: _337  and  _340
REMARK  139  A    between atoms: _340  and  _341
REMARK  140  A    between atoms: _344  and  _346
REMARK  141  A    between atoms: _346  and  _347
REMARK  142  A    between atoms: _349  and  _351
REMARK  143  A    between atoms: _351  and  _352
REMARK  144  A    between atoms: _355  and  _357
REMARK  145  A    between atoms: _357  and  _358
REMARK  146  A    between atoms: _357  and  _360
REMARK  147  A    between atoms: _360  and  _361
REMARK  148  A    between atoms: _364  and  _366
REMARK  149  A    between atoms: _366  and  _367
REMARK  150  A    between atoms: _366  and  _369
REMARK  151  A    between atoms: _369  and  _370
REMARK  152  A    between atoms: _373  and  _375
REMARK  153  A    between atoms: _375  and  _376
REMARK  154  A    between atoms: _375  and  _378
REMARK  155  A    between atoms: _378  and  _379
REMARK  156  A    between atoms: _382  and  _384
REMARK  157  A    between atoms: _384  and  _385
REMARK  158  A    between atoms: _384  and  _387
REMARK  159  A    between atoms: _390  and  _392
REMARK  160  A    between atoms: _392  and  _393
REMARK  161  A    between atoms: _392  and  _395
REMARK  162  A    between atoms: _395  and  _396
REMARK  163  A    between atoms: _396  and  _397
REMARK  164  A    between atoms: _397  and  _398
REMARK  165  A    between atoms: _398  and  _399
REMARK  166  A    between atoms: _403  and  _405
REMARK  167  A    between atoms: _405  and  _406
REMARK  168  A    between atoms: _405  and  _408
REMARK  169  A    between atoms: _408  and  _409
REMARK  170  A    between atoms: _409  and  _410
REMARK  171  A    between atoms: _412  and  _414
REMARK  172  A    between atoms: _414  and  _415
REMARK  173  A    between atoms: _414  and  _417
REMARK  174  A    between atoms: _417  and  _418
REMARK  175  A    between atoms: _421  and  _423
REMARK  176  A    between atoms: _423  and  _424
REMARK  177  A    between atoms: _426  and  _428
REMARK  178  A    between atoms: _428  and  _429
REMARK  179  A    between atoms: _431  and  _433
REMARK  180  A    between atoms: _433  and  _434
REMARK  181  A    between atoms: _433  and  _436
REMARK  182  A    between atoms: _436  and  _437
REMARK  183  A    between atoms: _440  and  _442
REMARK  184  A    between atoms: _442  and  _443
REMARK  185  A    between atoms: _445  and  _447
REMARK  186  A    between atoms: _447  and  _448
REMARK  187  A    between atoms: _450  and  _452
REMARK  188  A    between atoms: _452  and  _453
REMARK  189  A    between atoms: _452  and  _455
REMARK  190  A    between atoms: _455  and  _456
REMARK  191  A    between atoms: _462  and  _464
REMARK  192  A    between atoms: _464  and  _465
REMARK  193  A    between atoms: _464  and  _467
REMARK  194  A    between atoms: _467  and  _468
REMARK  195  A    between atoms: _471  and  _473
REMARK  196  A    between atoms: _473  and  _474
REMARK  197  A    between atoms: _473  and  _476
REMARK  198  A    between atoms: _476  and  _477
REMARK  199  A    between atoms: _480  and  _482
REMARK  200  A    between atoms: _482  and  _483
REMARK  201  A    between atoms: _482  and  _485
REMARK  202  A    between atoms: _485  and  _486
REMARK  203  A    between atoms: _490  and  _491
REMARK  204  A    between atoms: _496  and  _498
REMARK  205  A    between atoms: _498  and  _499
REMARK  206  A    between atoms: _498  and  _501
REMARK  207  A    between atoms: _504  and  _506
REMARK  208  A    between atoms: _506  and  _507
REMARK  209  A    between atoms: _506  and  _509
REMARK  210  A    between atoms: _509  and  _510
REMARK  211  A    between atoms: _515  and  _517
REMARK  212  A    between atoms: _517  and  _518
REMARK  213  A    between atoms: _517  and  _520
REMARK  214  A    between atoms: _520  and  _521
REMARK  215  A    between atoms: _524  and  _526
REMARK  216  A    between atoms: _526  and  _527
REMARK  217  A    between atoms: _529  and  _531
REMARK  218  A    between atoms: _531  and  _532
REMARK  219  A    between atoms: _531  and  _534
REMARK  220  A    between atoms: _534  and  _535
REMARK  221  A    between atoms: _535  and  _536
REMARK  222  A    between atoms: _536  and  _537
REMARK  223  A    between atoms: _546  and  _548
REMARK  224  A    between atoms: _548  and  _549
REMARK  225  A    between atoms: _548  and  _551
REMARK  226  A    between atoms: _551  and  _552
REMARK                            x       y       z     vdW  Elec       q    Type
REMARK                         _______ _______ _______ _____ _____    ______ ____
ROOT
ATOM      1  O   HOH     1       8.846  21.513  13.598  0.00  0.00    +0.000 OA
ENDROOT
TORSDOF 0
REMARK  Name = ../refined-set-2016/5bry/5bry_pocket.pdb
REMARK  226 active torsions:
REMARK  status: ('A' for Active; 'I' for Inactive)
REMARK    1  A    between atoms: _1  and  _3
REMARK    2  A    between atoms: _3  and  _4
REMARK    3  A    between atoms: _3  and  _6
REMARK    4  A    between atoms: _6  and  _7
REMARK    5  A    between atoms: _7  and  _8
REMARK    6  A    between atoms: _8  and  _9
REMARK    7  A    between atoms: _18  and  _20
REMARK    8  A    between atoms: _20  and  _21
REMARK    9  A    between atoms: _20  and  _23
REMARK   10  A    between atoms: _23  and  _24
REMARK   11  A    between atoms: _27  and  _29
REMARK   12  A    between atoms: _29  and  _30
REMARK   13  A    between atoms: _29  and  _32
REMARK   14  A    between atoms: _32  and  _33
REMARK   15  A    between atoms: _36  and  _38
REMARK   16  A    between atoms: _38  and  _39
REMARK   17  A    between atoms: _38  and  _41
REMARK   18  A    between atoms: _41  and  _42
REMARK   19  A    between atoms: _45  and  _47
REMARK   20  A    between atoms: _47  and  _48
REMARK   21  A    between atoms: _47  and  _50
REMARK   22  A    between atoms: _50  and  _51
REMARK   23  A    between atoms: _54  and  _56
REMARK   24  A    between atoms: _56  and  _57
REMARK   25  A    between atoms: _59  and  _61
REMARK   26  A    between atoms: _61  and  _62
REMARK   27  A    between atoms: _65  and  _67
REMARK   28  A    between atoms: _67  and  _68
REMARK   29  A    between atoms: _67  and  _70
REMARK   30  A    between atoms: _70  and  _71
REMARK   31  A    between atoms: _74  and  _76
REMARK   32  A    between atoms: _76  and  _77
REMARK   33  A    between atoms: _76  and  _79
REMARK   34  A    between atoms: _79  and  _80
REMARK   35  A    between atoms: _83  and  _85
REMARK   36  A    between atoms: _85  and  _86
REMARK   37  A    between atoms: _85  and  _88
REMARK   38  A    between atoms: _88  and  _89
REMARK   39  A    between atoms: _92  and  _94
REMARK   40  A    between atoms: _94  and  _95
REMARK   41  A    between atoms: _94  and  _97
REMARK   42  A    between atoms: _100  and  _102
REMARK   43  A    between atoms: _102  and  _103
REMARK   44  A    between atoms: _102  and  _105
REMARK   45  A    between atoms: _105  and  _106
REMARK   46  A    between atoms: _106  and  _107
REMARK   47  A    between atoms: _107  and  _108
REMARK   48  A    between atoms: _108  and  _109
REMARK   49  A    between atoms: _113  and  _115
REMARK   50  A    between atoms: _115  and  _116
REMARK   51  A    between atoms: _115  and  _118
REMARK   52  A    between atoms: _118  and  _119
REMARK   53  A    between atoms: _119  and  _120
REMARK   54  A    between atoms: _122  and  _124
REMARK   55  A    between atoms: _124  and  _125
REMARK   56  A    between atoms: _124  and  _127
REMARK   57  A    between atoms: _127  and  _128
REMARK   58  A    between atoms: _131  and  _133
REMARK   59  A    between atoms: _133  and  _134
REMARK   60  A    between atoms: _136  and  _138
REMARK   61  A    between atoms: _138  and  _139
REMARK   62  A    between atoms: _141  and  _143
REMARK   63  A    between atoms: _143  and  _144
REMARK   64  A    between atoms: _143  and  _146
REMARK   65  A    between atoms: _146  and  _147
REMARK   66  A    between atoms: _150  and  _152
REMARK   67  A    between atoms: _152  and  _153
REMARK   68  A    between atoms: _155  and  _157
REMARK   69  A    between atoms: _157  and  _158
REMARK   70  A    between atoms: _160  and  _162
REMARK   71  A    between atoms: _162  and  _163
REMARK   72  A    between atoms: _162  and  _165
REMARK   73  A    between atoms: _165  and  _166
REMARK   74  A    between atoms: _172  and  _174
REMARK   75  A    between atoms: _174  and  _175
REMARK   76  A    between atoms: _174  and  _177
REMARK   77  A    between atoms: _177  and  _178
REMARK   78  A    between atoms: _181  and  _183
REMARK   79  A    between atoms: _183  and  _184
REMARK   80  A    between atoms: _183  and  _186
REMARK   81  A    between atoms: _189  and  _191
REMARK   82  A    between atoms: _191  and  _192
REMARK   83  A    between atoms: _191  and  _194
REMARK   84  A    between atoms: _194  and  _195
REMARK   85  A    between atoms: _199  and  _200
REMARK   86  A    between atoms: _205  and  _207
REMARK   87  A    between atoms: _207  and  _208
REMARK   88  A    between atoms: _207  and  _210
REMARK   89  A    between atoms: _210  and  _211
REMARK   90  A    between atoms: _215  and  _216
REMARK   91  A    between atoms: _221  and  _223
REMARK   92  A    between atoms: _223  and  _224
REMARK   93  A    between atoms: _223  and  _226
REMARK   94  A    between atoms: _229  and  _231
REMARK   95  A    between atoms: _231  and  _232
REMARK   96  A    between atoms: _231  and  _234
REMARK   97  A    between atoms: _234  and  _235
REMARK   98  A    between atoms: _240  and  _242
REMARK   99  A    between atoms: _242  and  _243
REMARK  100  A    between atoms: _242  and  _245
REMARK  101  A    between atoms: _245  and  _246
REMARK  102  A    between atoms: _249  and  _251
REMARK  103  A    between atoms: _251  and  _252
REMARK  104  A    between atoms: _251  and  _254
REMARK  105  A    between atoms: _254  and  _255
REMARK  106  A    between atoms: _258  and  _260
REMARK  107  A    between atoms: _260  and  _261
REMARK  108  A    between atoms: _263  and  _265
REMARK  109  A    between atoms: _265  and  _266
REMARK  110  A    between atoms: _265  and  _268
REMARK  111  A    between atoms: _268  and  _269
REMARK  112  A    between atoms: _269  and  _270
REMARK  113  A    between atoms: _270  and  _271
REMARK  114  A    between atoms: _280  and  _282
REMARK  115  A    between atoms: _282  and  _283
REMARK  116  A    between atoms: _282  and  _285
REMARK  117  A    between atoms: _285  and  _286
REMARK  118  A    between atoms: _291  and  _293
REMARK  119  A    between atoms: _293  and  _294
REMARK  120  A    between atoms: _293  and  _296
REMARK  121  A    between atoms: _296  and  _297
REMARK  122  A    between atoms: _297  and  _298
REMARK  123  A    between atoms: _298  and  _299
REMARK  124  A    between atoms: _308  and  _310
REMARK  125  A    between atoms: _310  and  _311
REMARK  126  A    between atoms: _310  and  _313
REMARK  127  A    between atoms: _313  and  _314
REMARK  128  A    between atoms: _317  and  _319
REMARK  129  A    between atoms: _319  and  _320
REMARK  130  A    between atoms: _319  and  _322
REMARK  131  A    between atoms: _322  and  _323
REMARK  132  A    between atoms: _326  and  _328
REMARK  133  A    between atoms: _328  and  _329
REMARK  134  A    between atoms: _328  and  _331
REMARK  135  A    between atoms: _331  and  _332
REMARK  136  A    between atoms: _335  and  _337
REMARK  137  A    between atoms: _337  and  _338
REMARK  138  A    between atoms: _337  and  _340
REMARK  139  A    between atoms: _340  and  _341
REMARK  140  A    between atoms: _344  and  _346
REMARK  141  A    between atoms: _346  and  _347
REMARK  142  A    between atoms: _349  and  _351
REMARK  143  A    between atoms: _351  and  _352
REMARK  144  A    between atoms: _355  and  _357
REMARK  145  A    between atoms: _357  and  _358
REMARK  146  A    between atoms: _357  and  _360
REMARK  147  A    between atoms: _360  and  _361
REMARK  148  A    between atoms: _364  and  _366
REMARK  149  A    between atoms: _366  and  _367
REMARK  150  A    between atoms: _366  and  _369
REMARK  151  A    between atoms: _369  and  _370
REMARK  152  A    between atoms: _373  and  _375
REMARK  153  A    between atoms: _375  and  _376
REMARK  154  A    between atoms: _375  and  _378
REMARK  155  A    between atoms: _378  and  _379
REMARK  156  A    between atoms: _382  and  _384
REMARK  157  A    between atoms: _384  and  _385
REMARK  158  A    between atoms: _384  and  _387
REMARK  159  A    between atoms: _390  and  _392
REMARK  160  A    between atoms: _392  and  _393
REMARK  161  A    between atoms: _392  and  _395
REMARK  162  A    between atoms: _395  and  _396
REMARK  163  A    between atoms: _396  and  _397
REMARK  164  A    between atoms: _397  and  _398
REMARK  165  A    between atoms: _398  and  _399
REMARK  166  A    between atoms: _403  and  _405
REMARK  167  A    between atoms: _405  and  _406
REMARK  168  A    between atoms: _405  and  _408
REMARK  169  A    between atoms: _408  and  _409
REMARK  170  A    between atoms: _409  and  _410
REMARK  171  A    between atoms: _412  and  _414
REMARK  172  A    between atoms: _414  and  _415
REMARK  173  A    between atoms: _414  and  _417
REMARK  174  A    between atoms: _417  and  _418
REMARK  175  A    between atoms: _421  and  _423
REMARK  176  A    between atoms: _423  and  _424
REMARK  177  A    between atoms: _426  and  _428
REMARK  178  A    between atoms: _428  and  _429
REMARK  179  A    between atoms: _431  and  _433
REMARK  180  A    between atoms: _433  and  _434
REMARK  181  A    between atoms: _433  and  _436
REMARK  182  A    between atoms: _436  and  _437
REMARK  183  A    between atoms: _440  and  _442
REMARK  184  A    between atoms: _442  and  _443
REMARK  185  A    between atoms: _445  and  _447
REMARK  186  A    between atoms: _447  and  _448
REMARK  187  A    between atoms: _450  and  _452
REMARK  188  A    between atoms: _452  and  _453
REMARK  189  A    between atoms: _452  and  _455
REMARK  190  A    between atoms: _455  and  _456
REMARK  191  A    between atoms: _462  and  _464
REMARK  192  A    between atoms: _464  and  _465
REMARK  193  A    between atoms: _464  and  _467
REMARK  194  A    between atoms: _467  and  _468
REMARK  195  A    between atoms: _471  and  _473
REMARK  196  A    between atoms: _473  and  _474
REMARK  197  A    between atoms: _473  and  _476
REMARK  198  A    between atoms: _476  and  _477
REMARK  199  A    between atoms: _480  and  _482
REMARK  200  A    between atoms: _482  and  _483
REMARK  201  A    between atoms: _482  and  _485
REMARK  202  A    between atoms: _485  and  _486
REMARK  203  A    between atoms: _490  and  _491
REMARK  204  A    between atoms: _496  and  _498
REMARK  205  A    between atoms: _498  and  _499
REMARK  206  A    between atoms: _498  and  _501
REMARK  207  A    between atoms: _504  and  _506
REMARK  208  A    between atoms: _506  and  _507
REMARK  209  A    between atoms: _506  and  _509
REMARK  210  A    between atoms: _509  and  _510
REMARK  211  A    between atoms: _515  and  _517
REMARK  212  A    between atoms: _517  and  _518
REMARK  213  A    between atoms: _517  and  _520
REMARK  214  A    between atoms: _520  and  _521
REMARK  215  A    between atoms: _524  and  _526
REMARK  216  A    between atoms: _526  and  _527
REMARK  217  A    between atoms: _529  and  _531
REMARK  218  A    between atoms: _531  and  _532
REMARK  219  A    between atoms: _531  and  _534
REMARK  220  A    between atoms: _534  and  _535
REMARK  221  A    between atoms: _535  and  _536
REMARK  222  A    between atoms: _536  and  _537
REMARK  223  A    between atoms: _546  and  _548
REMARK  224  A    between atoms: _548  and  _549
REMARK  225  A    between atoms: _548  and  _551
REMARK  226  A    between atoms: _551  and  _552
REMARK                            x       y       z     vdW  Elec       q    Type
REMARK                         _______ _______ _______ _____ _____    ______ ____
ROOT
ATOM      1  O   HOH     1      23.188  36.681  12.900  0.00  0.00    +0.000 OA
ENDROOT
TORSDOF 0
REMARK  Name = ../refined-set-2016/5bry/5bry_pocket.pdb
REMARK  226 active torsions:
REMARK  status: ('A' for Active; 'I' for Inactive)
REMARK    1  A    between atoms: _1  and  _3
REMARK    2  A    between atoms: _3  and  _4
REMARK    3  A    between atoms: _3  and  _6
REMARK    4  A    between atoms: _6  and  _7
REMARK    5  A    between atoms: _7  and  _8
REMARK    6  A    between atoms: _8  and  _9
REMARK    7  A    between atoms: _18  and  _20
REMARK    8  A    between atoms: _20  and  _21
REMARK    9  A    between atoms: _20  and  _23
REMARK   10  A    between atoms: _23  and  _24
REMARK   11  A    between atoms: _27  and  _29
REMARK   12  A    between atoms: _29  and  _30
REMARK   13  A    between atoms: _29  and  _32
REMARK   14  A    between atoms: _32  and  _33
REMARK   15  A    between atoms: _36  and  _38
REMARK   16  A    between atoms: _38  and  _39
REMARK   17  A    between atoms: _38  and  _41
REMARK   18  A    between atoms: _41  and  _42
REMARK   19  A    between atoms: _45  and  _47
REMARK   20  A    between atoms: _47  and  _48
REMARK   21  A    between atoms: _47  and  _50
REMARK   22  A    between atoms: _50  and  _51
REMARK   23  A    between atoms: _54  and  _56
REMARK   24  A    between atoms: _56  and  _57
REMARK   25  A    between atoms: _59  and  _61
REMARK   26  A    between atoms: _61  and  _62
REMARK   27  A    between atoms: _65  and  _67
REMARK   28  A    between atoms: _67  and  _68
REMARK   29  A    between atoms: _67  and  _70
REMARK   30  A    between atoms: _70  and  _71
REMARK   31  A    between atoms: _74  and  _76
REMARK   32  A    between atoms: _76  and  _77
REMARK   33  A    between atoms: _76  and  _79
REMARK   34  A    between atoms: _79  and  _80
REMARK   35  A    between atoms: _83  and  _85
REMARK   36  A    between atoms: _85  and  _86
REMARK   37  A    between atoms: _85  and  _88
REMARK   38  A    between atoms: _88  and  _89
REMARK   39  A    between atoms: _92  and  _94
REMARK   40  A    between atoms: _94  and  _95
REMARK   41  A    between atoms: _94  and  _97
REMARK   42  A    between atoms: _100  and  _102
REMARK   43  A    between atoms: _102  and  _103
REMARK   44  A    between atoms: _102  and  _105
REMARK   45  A    between atoms: _105  and  _106
REMARK   46  A    between atoms: _106  and  _107
REMARK   47  A    between atoms: _107  and  _108
REMARK   48  A    between atoms: _108  and  _109
REMARK   49  A    between atoms: _113  and  _115
REMARK   50  A    between atoms: _115  and  _116
REMARK   51  A    between atoms: _115  and  _118
REMARK   52  A    between atoms: _118  and  _119
REMARK   53  A    between atoms: _119  and  _120
REMARK   54  A    between atoms: _122  and  _124
REMARK   55  A    between atoms: _124  and  _125
REMARK   56  A    between atoms: _124  and  _127
REMARK   57  A    between atoms: _127  and  _128
REMARK   58  A    between atoms: _131  and  _133
REMARK   59  A    between atoms: _133  and  _134
REMARK   60  A    between atoms: _136  and  _138
REMARK   61  A    between atoms: _138  and  _139
REMARK   62  A    between atoms: _141  and  _143
REMARK   63  A    between atoms: _143  and  _144
REMARK   64  A    between atoms: _143  and  _146
REMARK   65  A    between atoms: _146  and  _147
REMARK   66  A    between atoms: _150  and  _152
REMARK   67  A    between atoms: _152  and  _153
REMARK   68  A    between atoms: _155  and  _157
REMARK   69  A    between atoms: _157  and  _158
REMARK   70  A    between atoms: _160  and  _162
REMARK   71  A    between atoms: _162  and  _163
REMARK   72  A    between atoms: _162  and  _165
REMARK   73  A    between atoms: _165  and  _166
REMARK   74  A    between atoms: _172  and  _174
REMARK   75  A    between atoms: _174  and  _175
REMARK   76  A    between atoms: _174  and  _177
REMARK   77  A    between atoms: _177  and  _178
REMARK   78  A    between atoms: _181  and  _183
REMARK   79  A    between atoms: _183  and  _184
REMARK   80  A    between atoms: _183  and  _186
REMARK   81  A    between atoms: _189  and  _191
REMARK   82  A    between atoms: _191  and  _192
REMARK   83  A    between atoms: _191  and  _194
REMARK   84  A    between atoms: _194  and  _195
REMARK   85  A    between atoms: _199  and  _200
REMARK   86  A    between atoms: _205  and  _207
REMARK   87  A    between atoms: _207  and  _208
REMARK   88  A    between atoms: _207  and  _210
REMARK   89  A    between atoms: _210  and  _211
REMARK   90  A    between atoms: _215  and  _216
REMARK   91  A    between atoms: _221  and  _223
REMARK   92  A    between atoms: _223  and  _224
REMARK   93  A    between atoms: _223  and  _226
REMARK   94  A    between atoms: _229  and  _231
REMARK   95  A    between atoms: _231  and  _232
REMARK   96  A    between atoms: _231  and  _234
REMARK   97  A    between atoms: _234  and  _235
REMARK   98  A    between atoms: _240  and  _242
REMARK   99  A    between atoms: _242  and  _243
REMARK  100  A    between atoms: _242  and  _245
REMARK  101  A    between atoms: _245  and  _246
REMARK  102  A    between atoms: _249  and  _251
REMARK  103  A    between atoms: _251  and  _252
REMARK  104  A    between atoms: _251  and  _254
REMARK  105  A    between atoms: _254  and  _255
REMARK  106  A    between atoms: _258  and  _260
REMARK  107  A    between atoms: _260  and  _261
REMARK  108  A    between atoms: _263  and  _265
REMARK  109  A    between atoms: _265  and  _266
REMARK  110  A    between atoms: _265  and  _268
REMARK  111  A    between atoms: _268  and  _269
REMARK  112  A    between atoms: _269  and  _270
REMARK  113  A    between atoms: _270  and  _271
REMARK  114  A    between atoms: _280  and  _282
REMARK  115  A    between atoms: _282  and  _283
REMARK  116  A    between atoms: _282  and  _285
REMARK  117  A    between atoms: _285  and  _286
REMARK  118  A    between atoms: _291  and  _293
REMARK  119  A    between atoms: _293  and  _294
REMARK  120  A    between atoms: _293  and  _296
REMARK  121  A    between atoms: _296  and  _297
REMARK  122  A    between atoms: _297  and  _298
REMARK  123  A    between atoms: _298  and  _299
REMARK  124  A    between atoms: _308  and  _310
REMARK  125  A    between atoms: _310  and  _311
REMARK  126  A    between atoms: _310  and  _313
REMARK  127  A    between atoms: _313  and  _314
REMARK  128  A    between atoms: _317  and  _319
REMARK  129  A    between atoms: _319  and  _320
REMARK  130  A    between atoms: _319  and  _322
REMARK  131  A    between atoms: _322  and  _323
REMARK  132  A    between atoms: _326  and  _328
REMARK  133  A    between atoms: _328  and  _329
REMARK  134  A    between atoms: _328  and  _331
REMARK  135  A    between atoms: _331  and  _332
REMARK  136  A    between atoms: _335  and  _337
REMARK  137  A    between atoms: _337  and  _338
REMARK  138  A    between atoms: _337  and  _340
REMARK  139  A    between atoms: _340  and  _341
REMARK  140  A    between atoms: _344  and  _346
REMARK  141  A    between atoms: _346  and  _347
REMARK  142  A    between atoms: _349  and  _351
REMARK  143  A    between atoms: _351  and  _352
REMARK  144  A    between atoms: _355  and  _357
REMARK  145  A    between atoms: _357  and  _358
REMARK  146  A    between atoms: _357  and  _360
REMARK  147  A    between atoms: _360  and  _361
REMARK  148  A    between atoms: _364  and  _366
REMARK  149  A    between atoms: _366  and  _367
REMARK  150  A    between atoms: _366  and  _369
REMARK  151  A    between atoms: _369  and  _370
REMARK  152  A    between atoms: _373  and  _375
REMARK  153  A    between atoms: _375  and  _376
REMARK  154  A    between atoms: _375  and  _378
REMARK  155  A    between atoms: _378  and  _379
REMARK  156  A    between atoms: _382  and  _384
REMARK  157  A    between atoms: _384  and  _385
REMARK  158  A    between atoms: _384  and  _387
REMARK  159  A    between atoms: _390  and  _392
REMARK  160  A    between atoms: _392  and  _393
REMARK  161  A    between atoms: _392  and  _395
REMARK  162  A    between atoms: _395  and  _396
REMARK  163  A    between atoms: _396  and  _397
REMARK  164  A    between atoms: _397  and  _398
REMARK  165  A    between atoms: _398  and  _399
REMARK  166  A    between atoms: _403  and  _405
REMARK  167  A    between atoms: _405  and  _406
REMARK  168  A    between atoms: _405  and  _408
REMARK  169  A    between atoms: _408  and  _409
REMARK  170  A    between atoms: _409  and  _410
REMARK  171  A    between atoms: _412  and  _414
REMARK  172  A    between atoms: _414  and  _415
REMARK  173  A    between atoms: _414  and  _417
REMARK  174  A    between atoms: _417  and  _418
REMARK  175  A    between atoms: _421  and  _423
REMARK  176  A    between atoms: _423  and  _424
REMARK  177  A    between atoms: _426  and  _428
REMARK  178  A    between atoms: _428  and  _429
REMARK  179  A    between atoms: _431  and  _433
REMARK  180  A    between atoms: _433  and  _434
REMARK  181  A    between atoms: _433  and  _436
REMARK  182  A    between atoms: _436  and  _437
REMARK  183  A    between atoms: _440  and  _442
REMARK  184  A    between atoms: _442  and  _443
REMARK  185  A    between atoms: _445  and  _447
REMARK  186  A    between atoms: _447  and  _448
REMARK  187  A    between atoms: _450  and  _452
REMARK  188  A    between atoms: _452  and  _453
REMARK  189  A    between atoms: _452  and  _455
REMARK  190  A    between atoms: _455  and  _456
REMARK  191  A    between atoms: _462  and  _464
REMARK  192  A    between atoms: _464  and  _465
REMARK  193  A    between atoms: _464  and  _467
REMARK  194  A    between atoms: _467  and  _468
REMARK  195  A    between atoms: _471  and  _473
REMARK  196  A    between atoms: _473  and  _474
REMARK  197  A    between atoms: _473  and  _476
REMARK  198  A    between atoms: _476  and  _477
REMARK  199  A    between atoms: _480  and  _482
REMARK  200  A    between atoms: _482  and  _483
REMARK  201  A    between atoms: _482  and  _485
REMARK  202  A    between atoms: _485  and  _486
REMARK  203  A    between atoms: _490  and  _491
REMARK  204  A    between atoms: _496  and  _498
REMARK  205  A    between atoms: _498  and  _499
REMARK  206  A    between atoms: _498  and  _501
REMARK  207  A    between atoms: _504  and  _506
REMARK  208  A    between atoms: _506  and  _507
REMARK  209  A    between atoms: _506  and  _509
REMARK  210  A    between atoms: _509  and  _510
REMARK  211  A    between atoms: _515  and  _517
REMARK  212  A    between atoms: _517  and  _518
REMARK  213  A    between atoms: _517  and  _520
REMARK  214  A    between atoms: _520  and  _521
REMARK  215  A    between atoms: _524  and  _526
REMARK  216  A    between atoms: _526  and  _527
REMARK  217  A    between atoms: _529  and  _531
REMARK  218  A    between atoms: _531  and  _532
REMARK  219  A    between atoms: _531  and  _534
REMARK  220  A    between atoms: _534  and  _535
REMARK  221  A    between atoms: _535  and  _536
REMARK  222  A    between atoms: _536  and  _537
REMARK  223  A    between atoms: _546  and  _548
REMARK  224  A    between atoms: _548  and  _549
REMARK  225  A    between atoms: _548  and  _551
REMARK  226  A    between atoms: _551  and  _552
REMARK                            x       y       z     vdW  Elec       q    Type
REMARK                         _______ _______ _______ _____ _____    ______ ____
ROOT
ATOM      1  O   HOH     1      25.878  34.256  11.233  0.00  0.00    +0.000 OA
ENDROOT
TORSDOF 0
REMARK  Name = ../refined-set-2016/5bry/5bry_pocket.pdb
REMARK  226 active torsions:
REMARK  status: ('A' for Active; 'I' for Inactive)
REMARK    1  A    between atoms: _1  and  _3
REMARK    2  A    between atoms: _3  and  _4
REMARK    3  A    between atoms: _3  and  _6
REMARK    4  A    between atoms: _6  and  _7
REMARK    5  A    between atoms: _7  and  _8
REMARK    6  A    between atoms: _8  and  _9
REMARK    7  A    between atoms: _18  and  _20
REMARK    8  A    between atoms: _20  and  _21
REMARK    9  A    between atoms: _20  and  _23
REMARK   10  A    between atoms: _23  and  _24
REMARK   11  A    between atoms: _27  and  _29
REMARK   12  A    between atoms: _29  and  _30
REMARK   13  A    between atoms: _29  and  _32
REMARK   14  A    between atoms: _32  and  _33
REMARK   15  A    between atoms: _36  and  _38
REMARK   16  A    between atoms: _38  and  _39
REMARK   17  A    between atoms: _38  and  _41
REMARK   18  A    between atoms: _41  and  _42
REMARK   19  A    between atoms: _45  and  _47
REMARK   20  A    between atoms: _47  and  _48
REMARK   21  A    between atoms: _47  and  _50
REMARK   22  A    between atoms: _50  and  _51
REMARK   23  A    between atoms: _54  and  _56
REMARK   24  A    between atoms: _56  and  _57
REMARK   25  A    between atoms: _59  and  _61
REMARK   26  A    between atoms: _61  and  _62
REMARK   27  A    between atoms: _65  and  _67
REMARK   28  A    between atoms: _67  and  _68
REMARK   29  A    between atoms: _67  and  _70
REMARK   30  A    between atoms: _70  and  _71
REMARK   31  A    between atoms: _74  and  _76
REMARK   32  A    between atoms: _76  and  _77
REMARK   33  A    between atoms: _76  and  _79
REMARK   34  A    between atoms: _79  and  _80
REMARK   35  A    between atoms: _83  and  _85
REMARK   36  A    between atoms: _85  and  _86
REMARK   37  A    between atoms: _85  and  _88
REMARK   38  A    between atoms: _88  and  _89
REMARK   39  A    between atoms: _92  and  _94
REMARK   40  A    between atoms: _94  and  _95
REMARK   41  A    between atoms: _94  and  _97
REMARK   42  A    between atoms: _100  and  _102
REMARK   43  A    between atoms: _102  and  _103
REMARK   44  A    between atoms: _102  and  _105
REMARK   45  A    between atoms: _105  and  _106
REMARK   46  A    between atoms: _106  and  _107
REMARK   47  A    between atoms: _107  and  _108
REMARK   48  A    between atoms: _108  and  _109
REMARK   49  A    between atoms: _113  and  _115
REMARK   50  A    between atoms: _115  and  _116
REMARK   51  A    between atoms: _115  and  _118
REMARK   52  A    between atoms: _118  and  _119
REMARK   53  A    between atoms: _119  and  _120
REMARK   54  A    between atoms: _122  and  _124
REMARK   55  A    between atoms: _124  and  _125
REMARK   56  A    between atoms: _124  and  _127
REMARK   57  A    between atoms: _127  and  _128
REMARK   58  A    between atoms: _131  and  _133
REMARK   59  A    between atoms: _133  and  _134
REMARK   60  A    between atoms: _136  and  _138
REMARK   61  A    between atoms: _138  and  _139
REMARK   62  A    between atoms: _141  and  _143
REMARK   63  A    between atoms: _143  and  _144
REMARK   64  A    between atoms: _143  and  _146
REMARK   65  A    between atoms: _146  and  _147
REMARK   66  A    between atoms: _150  and  _152
REMARK   67  A    between atoms: _152  and  _153
REMARK   68  A    between atoms: _155  and  _157
REMARK   69  A    between atoms: _157  and  _158
REMARK   70  A    between atoms: _160  and  _162
REMARK   71  A    between atoms: _162  and  _163
REMARK   72  A    between atoms: _162  and  _165
REMARK   73  A    between atoms: _165  and  _166
REMARK   74  A    between atoms: _172  and  _174
REMARK   75  A    between atoms: _174  and  _175
REMARK   76  A    between atoms: _174  and  _177
REMARK   77  A    between atoms: _177  and  _178
REMARK   78  A    between atoms: _181  and  _183
REMARK   79  A    between atoms: _183  and  _184
REMARK   80  A    between atoms: _183  and  _186
REMARK   81  A    between atoms: _189  and  _191
REMARK   82  A    between atoms: _191  and  _192
REMARK   83  A    between atoms: _191  and  _194
REMARK   84  A    between atoms: _194  and  _195
REMARK   85  A    between atoms: _199  and  _200
REMARK   86  A    between atoms: _205  and  _207
REMARK   87  A    between atoms: _207  and  _208
REMARK   88  A    between atoms: _207  and  _210
REMARK   89  A    between atoms: _210  and  _211
REMARK   90  A    between atoms: _215  and  _216
REMARK   91  A    between atoms: _221  and  _223
REMARK   92  A    between atoms: _223  and  _224
REMARK   93  A    between atoms: _223  and  _226
REMARK   94  A    between atoms: _229  and  _231
REMARK   95  A    between atoms: _231  and  _232
REMARK   96  A    between atoms: _231  and  _234
REMARK   97  A    between atoms: _234  and  _235
REMARK   98  A    between atoms: _240  and  _242
REMARK   99  A    between atoms: _242  and  _243
REMARK  100  A    between atoms: _242  and  _245
REMARK  101  A    between atoms: _245  and  _246
REMARK  102  A    between atoms: _249  and  _251
REMARK  103  A    between atoms: _251  and  _252
REMARK  104  A    between atoms: _251  and  _254
REMARK  105  A    between atoms: _254  and  _255
REMARK  106  A    between atoms: _258  and  _260
REMARK  107  A    between atoms: _260  and  _261
REMARK  108  A    between atoms: _263  and  _265
REMARK  109  A    between atoms: _265  and  _266
REMARK  110  A    between atoms: _265  and  _268
REMARK  111  A    between atoms: _268  and  _269
REMARK  112  A    between atoms: _269  and  _270
REMARK  113  A    between atoms: _270  and  _271
REMARK  114  A    between atoms: _280  and  _282
REMARK  115  A    between atoms: _282  and  _283
REMARK  116  A    between atoms: _282  and  _285
REMARK  117  A    between atoms: _285  and  _286
REMARK  118  A    between atoms: _291  and  _293
REMARK  119  A    between atoms: _293  and  _294
REMARK  120  A    between atoms: _293  and  _296
REMARK  121  A    between atoms: _296  and  _297
REMARK  122  A    between atoms: _297  and  _298
REMARK  123  A    between atoms: _298  and  _299
REMARK  124  A    between atoms: _308  and  _310
REMARK  125  A    between atoms: _310  and  _311
REMARK  126  A    between atoms: _310  and  _313
REMARK  127  A    between atoms: _313  and  _314
REMARK  128  A    between atoms: _317  and  _319
REMARK  129  A    between atoms: _319  and  _320
REMARK  130  A    between atoms: _319  and  _322
REMARK  131  A    between atoms: _322  and  _323
REMARK  132  A    between atoms: _326  and  _328
REMARK  133  A    between atoms: _328  and  _329
REMARK  134  A    between atoms: _328  and  _331
REMARK  135  A    between atoms: _331  and  _332
REMARK  136  A    between atoms: _335  and  _337
REMARK  137  A    between atoms: _337  and  _338
REMARK  138  A    between atoms: _337  and  _340
REMARK  139  A    between atoms: _340  and  _341
REMARK  140  A    between atoms: _344  and  _346
REMARK  141  A    between atoms: _346  and  _347
REMARK  142  A    between atoms: _349  and  _351
REMARK  143  A    between atoms: _351  and  _352
REMARK  144  A    between atoms: _355  and  _357
REMARK  145  A    between atoms: _357  and  _358
REMARK  146  A    between atoms: _357  and  _360
REMARK  147  A    between atoms: _360  and  _361
REMARK  148  A    between atoms: _364  and  _366
REMARK  149  A    between atoms: _366  and  _367
REMARK  150  A    between atoms: _366  and  _369
REMARK  151  A    between atoms: _369  and  _370
REMARK  152  A    between atoms: _373  and  _375
REMARK  153  A    between atoms: _375  and  _376
REMARK  154  A    between atoms: _375  and  _378
REMARK  155  A    between atoms: _378  and  _379
REMARK  156  A    between atoms: _382  and  _384
REMARK  157  A    between atoms: _384  and  _385
REMARK  158  A    between atoms: _384  and  _387
REMARK  159  A    between atoms: _390  and  _392
REMARK  160  A    between atoms: _392  and  _393
REMARK  161  A    between atoms: _392  and  _395
REMARK  162  A    between atoms: _395  and  _396
REMARK  163  A    between atoms: _396  and  _397
REMARK  164  A    between atoms: _397  and  _398
REMARK  165  A    between atoms: _398  and  _399
REMARK  166  A    between atoms: _403  and  _405
REMARK  167  A    between atoms: _405  and  _406
REMARK  168  A    between atoms: _405  and  _408
REMARK  169  A    between atoms: _408  and  _409
REMARK  170  A    between atoms: _409  and  _410
REMARK  171  A    between atoms: _412  and  _414
REMARK  172  A    between atoms: _414  and  _415
REMARK  173  A    between atoms: _414  and  _417
REMARK  174  A    between atoms: _417  and  _418
REMARK  175  A    between atoms: _421  and  _423
REMARK  176  A    between atoms: _423  and  _424
REMARK  177  A    between atoms: _426  and  _428
REMARK  178  A    between atoms: _428  and  _429
REMARK  179  A    between atoms: _431  and  _433
REMARK  180  A    between atoms: _433  and  _434
REMARK  181  A    between atoms: _433  and  _436
REMARK  182  A    between atoms: _436  and  _437
REMARK  183  A    between atoms: _440  and  _442
REMARK  184  A    between atoms: _442  and  _443
REMARK  185  A    between atoms: _445  and  _447
REMARK  186  A    between atoms: _447  and  _448
REMARK  187  A    between atoms: _450  and  _452
REMARK  188  A    between atoms: _452  and  _453
REMARK  189  A    between atoms: _452  and  _455
REMARK  190  A    between atoms: _455  and  _456
REMARK  191  A    between atoms: _462  and  _464
REMARK  192  A    between atoms: _464  and  _465
REMARK  193  A    between atoms: _464  and  _467
REMARK  194  A    between atoms: _467  and  _468
REMARK  195  A    between atoms: _471  and  _473
REMARK  196  A    between atoms: _473  and  _474
REMARK  197  A    between atoms: _473  and  _476
REMARK  198  A    between atoms: _476  and  _477
REMARK  199  A    between atoms: _480  and  _482
REMARK  200  A    between atoms: _482  and  _483
REMARK  201  A    between atoms: _482  and  _485
REMARK  202  A    between atoms: _485  and  _486
REMARK  203  A    between atoms: _490  and  _491
REMARK  204  A    between atoms: _496  and  _498
REMARK  205  A    between atoms: _498  and  _499
REMARK  206  A    between atoms: _498  and  _501
REMARK  207  A    between atoms: _504  and  _506
REMARK  208  A    between atoms: _506  and  _507
REMARK  209  A    between atoms: _506  and  _509
REMARK  210  A    between atoms: _509  and  _510
REMARK  211  A    between atoms: _515  and  _517
REMARK  212  A    between atoms: _517  and  _518
REMARK  213  A    between atoms: _517  and  _520
REMARK  214  A    between atoms: _520  and  _521
REMARK  215  A    between atoms: _524  and  _526
REMARK  216  A    between atoms: _526  and  _527
REMARK  217  A    between atoms: _529  and  _531
REMARK  218  A    between atoms: _531  and  _532
REMARK  219  A    between atoms: _531  and  _534
REMARK  220  A    between atoms: _534  and  _535
REMARK  221  A    between atoms: _535  and  _536
REMARK  222  A    between atoms: _536  and  _537
REMARK  223  A    between atoms: _546  and  _548
REMARK  224  A    between atoms: _548  and  _549
REMARK  225  A    between atoms: _548  and  _551
REMARK  226  A    between atoms: _551  and  _552
REMARK                            x       y       z     vdW  Elec       q    Type
REMARK                         _______ _______ _______ _____ _____    ______ ____
ROOT
ATOM      1  O   HOH     1       7.259  22.696  11.392  0.00  0.00    +0.000 OA
ENDROOT
TORSDOF 0
REMARK  Name = ../refined-set-2016/5bry/5bry_pocket.pdb
REMARK  226 active torsions:
REMARK  status: ('A' for Active; 'I' for Inactive)
REMARK    1  A    between atoms: _1  and  _3
REMARK    2  A    between atoms: _3  and  _4
REMARK    3  A    between atoms: _3  and  _6
REMARK    4  A    between atoms: _6  and  _7
REMARK    5  A    between atoms: _7  and  _8
REMARK    6  A    between atoms: _8  and  _9
REMARK    7  A    between atoms: _18  and  _20
REMARK    8  A    between atoms: _20  and  _21
REMARK    9  A    between atoms: _20  and  _23
REMARK   10  A    between atoms: _23  and  _24
REMARK   11  A    between atoms: _27  and  _29
REMARK   12  A    between atoms: _29  and  _30
REMARK   13  A    between atoms: _29  and  _32
REMARK   14  A    between atoms: _32  and  _33
REMARK   15  A    between atoms: _36  and  _38
REMARK   16  A    between atoms: _38  and  _39
REMARK   17  A    between atoms: _38  and  _41
REMARK   18  A    between atoms: _41  and  _42
REMARK   19  A    between atoms: _45  and  _47
REMARK   20  A    between atoms: _47  and  _48
REMARK   21  A    between atoms: _47  and  _50
REMARK   22  A    between atoms: _50  and  _51
REMARK   23  A    between atoms: _54  and  _56
REMARK   24  A    between atoms: _56  and  _57
REMARK   25  A    between atoms: _59  and  _61
REMARK   26  A    between atoms: _61  and  _62
REMARK   27  A    between atoms: _65  and  _67
REMARK   28  A    between atoms: _67  and  _68
REMARK   29  A    between atoms: _67  and  _70
REMARK   30  A    between atoms: _70  and  _71
REMARK   31  A    between atoms: _74  and  _76
REMARK   32  A    between atoms: _76  and  _77
REMARK   33  A    between atoms: _76  and  _79
REMARK   34  A    between atoms: _79  and  _80
REMARK   35  A    between atoms: _83  and  _85
REMARK   36  A    between atoms: _85  and  _86
REMARK   37  A    between atoms: _85  and  _88
REMARK   38  A    between atoms: _88  and  _89
REMARK   39  A    between atoms: _92  and  _94
REMARK   40  A    between atoms: _94  and  _95
REMARK   41  A    between atoms: _94  and  _97
REMARK   42  A    between atoms: _100  and  _102
REMARK   43  A    between atoms: _102  and  _103
REMARK   44  A    between atoms: _102  and  _105
REMARK   45  A    between atoms: _105  and  _106
REMARK   46  A    between atoms: _106  and  _107
REMARK   47  A    between atoms: _107  and  _108
REMARK   48  A    between atoms: _108  and  _109
REMARK   49  A    between atoms: _113  and  _115
REMARK   50  A    between atoms: _115  and  _116
REMARK   51  A    between atoms: _115  and  _118
REMARK   52  A    between atoms: _118  and  _119
REMARK   53  A    between atoms: _119  and  _120
REMARK   54  A    between atoms: _122  and  _124
REMARK   55  A    between atoms: _124  and  _125
REMARK   56  A    between atoms: _124  and  _127
REMARK   57  A    between atoms: _127  and  _128
REMARK   58  A    between atoms: _131  and  _133
REMARK   59  A    between atoms: _133  and  _134
REMARK   60  A    between atoms: _136  and  _138
REMARK   61  A    between atoms: _138  and  _139
REMARK   62  A    between atoms: _141  and  _143
REMARK   63  A    between atoms: _143  and  _144
REMARK   64  A    between atoms: _143  and  _146
REMARK   65  A    between atoms: _146  and  _147
REMARK   66  A    between atoms: _150  and  _152
REMARK   67  A    between atoms: _152  and  _153
REMARK   68  A    between atoms: _155  and  _157
REMARK   69  A    between atoms: _157  and  _158
REMARK   70  A    between atoms: _160  and  _162
REMARK   71  A    between atoms: _162  and  _163
REMARK   72  A    between atoms: _162  and  _165
REMARK   73  A    between atoms: _165  and  _166
REMARK   74  A    between atoms: _172  and  _174
REMARK   75  A    between atoms: _174  and  _175
REMARK   76  A    between atoms: _174  and  _177
REMARK   77  A    between atoms: _177  and  _178
REMARK   78  A    between atoms: _181  and  _183
REMARK   79  A    between atoms: _183  and  _184
REMARK   80  A    between atoms: _183  and  _186
REMARK   81  A    between atoms: _189  and  _191
REMARK   82  A    between atoms: _191  and  _192
REMARK   83  A    between atoms: _191  and  _194
REMARK   84  A    between atoms: _194  and  _195
REMARK   85  A    between atoms: _199  and  _200
REMARK   86  A    between atoms: _205  and  _207
REMARK   87  A    between atoms: _207  and  _208
REMARK   88  A    between atoms: _207  and  _210
REMARK   89  A    between atoms: _210  and  _211
REMARK   90  A    between atoms: _215  and  _216
REMARK   91  A    between atoms: _221  and  _223
REMARK   92  A    between atoms: _223  and  _224
REMARK   93  A    between atoms: _223  and  _226
REMARK   94  A    between atoms: _229  and  _231
REMARK   95  A    between atoms: _231  and  _232
REMARK   96  A    between atoms: _231  and  _234
REMARK   97  A    between atoms: _234  and  _235
REMARK   98  A    between atoms: _240  and  _242
REMARK   99  A    between atoms: _242  and  _243
REMARK  100  A    between atoms: _242  and  _245
REMARK  101  A    between atoms: _245  and  _246
REMARK  102  A    between atoms: _249  and  _251
REMARK  103  A    between atoms: _251  and  _252
REMARK  104  A    between atoms: _251  and  _254
REMARK  105  A    between atoms: _254  and  _255
REMARK  106  A    between atoms: _258  and  _260
REMARK  107  A    between atoms: _260  and  _261
REMARK  108  A    between atoms: _263  and  _265
REMARK  109  A    between atoms: _265  and  _266
REMARK  110  A    between atoms: _265  and  _268
REMARK  111  A    between atoms: _268  and  _269
REMARK  112  A    between atoms: _269  and  _270
REMARK  113  A    between atoms: _270  and  _271
REMARK  114  A    between atoms: _280  and  _282
REMARK  115  A    between atoms: _282  and  _283
REMARK  116  A    between atoms: _282  and  _285
REMARK  117  A    between atoms: _285  and  _286
REMARK  118  A    between atoms: _291  and  _293
REMARK  119  A    between atoms: _293  and  _294
REMARK  120  A    between atoms: _293  and  _296
REMARK  121  A    between atoms: _296  and  _297
REMARK  122  A    between atoms: _297  and  _298
REMARK  123  A    between atoms: _298  and  _299
REMARK  124  A    between atoms: _308  and  _310
REMARK  125  A    between atoms: _310  and  _311
REMARK  126  A    between atoms: _310  and  _313
REMARK  127  A    between atoms: _313  and  _314
REMARK  128  A    between atoms: _317  and  _319
REMARK  129  A    between atoms: _319  and  _320
REMARK  130  A    between atoms: _319  and  _322
REMARK  131  A    between atoms: _322  and  _323
REMARK  132  A    between atoms: _326  and  _328
REMARK  133  A    between atoms: _328  and  _329
REMARK  134  A    between atoms: _328  and  _331
REMARK  135  A    between atoms: _331  and  _332
REMARK  136  A    between atoms: _335  and  _337
REMARK  137  A    between atoms: _337  and  _338
REMARK  138  A    between atoms: _337  and  _340
REMARK  139  A    between atoms: _340  and  _341
REMARK  140  A    between atoms: _344  and  _346
REMARK  141  A    between atoms: _346  and  _347
REMARK  142  A    between atoms: _349  and  _351
REMARK  143  A    between atoms: _351  and  _352
REMARK  144  A    between atoms: _355  and  _357
REMARK  145  A    between atoms: _357  and  _358
REMARK  146  A    between atoms: _357  and  _360
REMARK  147  A    between atoms: _360  and  _361
REMARK  148  A    between atoms: _364  and  _366
REMARK  149  A    between atoms: _366  and  _367
REMARK  150  A    between atoms: _366  and  _369
REMARK  151  A    between atoms: _369  and  _370
REMARK  152  A    between atoms: _373  and  _375
REMARK  153  A    between atoms: _375  and  _376
REMARK  154  A    between atoms: _375  and  _378
REMARK  155  A    between atoms: _378  and  _379
REMARK  156  A    between atoms: _382  and  _384
REMARK  157  A    between atoms: _384  and  _385
REMARK  158  A    between atoms: _384  and  _387
REMARK  159  A    between atoms: _390  and  _392
REMARK  160  A    between atoms: _392  and  _393
REMARK  161  A    between atoms: _392  and  _395
REMARK  162  A    between atoms: _395  and  _396
REMARK  163  A    between atoms: _396  and  _397
REMARK  164  A    between atoms: _397  and  _398
REMARK  165  A    between atoms: _398  and  _399
REMARK  166  A    between atoms: _403  and  _405
REMARK  167  A    between atoms: _405  and  _406
REMARK  168  A    between atoms: _405  and  _408
REMARK  169  A    between atoms: _408  and  _409
REMARK  170  A    between atoms: _409  and  _410
REMARK  171  A    between atoms: _412  and  _414
REMARK  172  A    between atoms: _414  and  _415
REMARK  173  A    between atoms: _414  and  _417
REMARK  174  A    between atoms: _417  and  _418
REMARK  175  A    between atoms: _421  and  _423
REMARK  176  A    between atoms: _423  and  _424
REMARK  177  A    between atoms: _426  and  _428
REMARK  178  A    between atoms: _428  and  _429
REMARK  179  A    between atoms: _431  and  _433
REMARK  180  A    between atoms: _433  and  _434
REMARK  181  A    between atoms: _433  and  _436
REMARK  182  A    between atoms: _436  and  _437
REMARK  183  A    between atoms: _440  and  _442
REMARK  184  A    between atoms: _442  and  _443
REMARK  185  A    between atoms: _445  and  _447
REMARK  186  A    between atoms: _447  and  _448
REMARK  187  A    between atoms: _450  and  _452
REMARK  188  A    between atoms: _452  and  _453
REMARK  189  A    between atoms: _452  and  _455
REMARK  190  A    between atoms: _455  and  _456
REMARK  191  A    between atoms: _462  and  _464
REMARK  192  A    between atoms: _464  and  _465
REMARK  193  A    between atoms: _464  and  _467
REMARK  194  A    between atoms: _467  and  _468
REMARK  195  A    between atoms: _471  and  _473
REMARK  196  A    between atoms: _473  and  _474
REMARK  197  A    between atoms: _473  and  _476
REMARK  198  A    between atoms: _476  and  _477
REMARK  199  A    between atoms: _480  and  _482
REMARK  200  A    between atoms: _482  and  _483
REMARK  201  A    between atoms: _482  and  _485
REMARK  202  A    between atoms: _485  and  _486
REMARK  203  A    between atoms: _490  and  _491
REMARK  204  A    between atoms: _496  and  _498
REMARK  205  A    between atoms: _498  and  _499
REMARK  206  A    between atoms: _498  and  _501
REMARK  207  A    between atoms: _504  and  _506
REMARK  208  A    between atoms: _506  and  _507
REMARK  209  A    between atoms: _506  and  _509
REMARK  210  A    between atoms: _509  and  _510
REMARK  211  A    between atoms: _515  and  _517
REMARK  212  A    between atoms: _517  and  _518
REMARK  213  A    between atoms: _517  and  _520
REMARK  214  A    between atoms: _520  and  _521
REMARK  215  A    between atoms: _524  and  _526
REMARK  216  A    between atoms: _526  and  _527
REMARK  217  A    between atoms: _529  and  _531
REMARK  218  A    between atoms: _531  and  _532
REMARK  219  A    between atoms: _531  and  _534
REMARK  220  A    between atoms: _534  and  _535
REMARK  221  A    between atoms: _535  and  _536
REMARK  222  A    between atoms: _536  and  _537
REMARK  223  A    between atoms: _546  and  _548
REMARK  224  A    between atoms: _548  and  _549
REMARK  225  A    between atoms: _548  and  _551
REMARK  226  A    between atoms: _551  and  _552
REMARK                            x       y       z     vdW  Elec       q    Type
REMARK                         _______ _______ _______ _____ _____    ______ ____
ROOT
ATOM      1  O   HOH     1      27.391  23.944  18.372  0.00  0.00    +0.000 OA
ENDROOT
TORSDOF 0
REMARK  Name = ../refined-set-2016/5bry/5bry_pocket.pdb
REMARK  226 active torsions:
REMARK  status: ('A' for Active; 'I' for Inactive)
REMARK    1  A    between atoms: _1  and  _3
REMARK    2  A    between atoms: _3  and  _4
REMARK    3  A    between atoms: _3  and  _6
REMARK    4  A    between atoms: _6  and  _7
REMARK    5  A    between atoms: _7  and  _8
REMARK    6  A    between atoms: _8  and  _9
REMARK    7  A    between atoms: _18  and  _20
REMARK    8  A    between atoms: _20  and  _21
REMARK    9  A    between atoms: _20  and  _23
REMARK   10  A    between atoms: _23  and  _24
REMARK   11  A    between atoms: _27  and  _29
REMARK   12  A    between atoms: _29  and  _30
REMARK   13  A    between atoms: _29  and  _32
REMARK   14  A    between atoms: _32  and  _33
REMARK   15  A    between atoms: _36  and  _38
REMARK   16  A    between atoms: _38  and  _39
REMARK   17  A    between atoms: _38  and  _41
REMARK   18  A    between atoms: _41  and  _42
REMARK   19  A    between atoms: _45  and  _47
REMARK   20  A    between atoms: _47  and  _48
REMARK   21  A    between atoms: _47  and  _50
REMARK   22  A    between atoms: _50  and  _51
REMARK   23  A    between atoms: _54  and  _56
REMARK   24  A    between atoms: _56  and  _57
REMARK   25  A    between atoms: _59  and  _61
REMARK   26  A    between atoms: _61  and  _62
REMARK   27  A    between atoms: _65  and  _67
REMARK   28  A    between atoms: _67  and  _68
REMARK   29  A    between atoms: _67  and  _70
REMARK   30  A    between atoms: _70  and  _71
REMARK   31  A    between atoms: _74  and  _76
REMARK   32  A    between atoms: _76  and  _77
REMARK   33  A    between atoms: _76  and  _79
REMARK   34  A    between atoms: _79  and  _80
REMARK   35  A    between atoms: _83  and  _85
REMARK   36  A    between atoms: _85  and  _86
REMARK   37  A    between atoms: _85  and  _88
REMARK   38  A    between atoms: _88  and  _89
REMARK   39  A    between atoms: _92  and  _94
REMARK   40  A    between atoms: _94  and  _95
REMARK   41  A    between atoms: _94  and  _97
REMARK   42  A    between atoms: _100  and  _102
REMARK   43  A    between atoms: _102  and  _103
REMARK   44  A    between atoms: _102  and  _105
REMARK   45  A    between atoms: _105  and  _106
REMARK   46  A    between atoms: _106  and  _107
REMARK   47  A    between atoms: _107  and  _108
REMARK   48  A    between atoms: _108  and  _109
REMARK   49  A    between atoms: _113  and  _115
REMARK   50  A    between atoms: _115  and  _116
REMARK   51  A    between atoms: _115  and  _118
REMARK   52  A    between atoms: _118  and  _119
REMARK   53  A    between atoms: _119  and  _120
REMARK   54  A    between atoms: _122  and  _124
REMARK   55  A    between atoms: _124  and  _125
REMARK   56  A    between atoms: _124  and  _127
REMARK   57  A    between atoms: _127  and  _128
REMARK   58  A    between atoms: _131  and  _133
REMARK   59  A    between atoms: _133  and  _134
REMARK   60  A    between atoms: _136  and  _138
REMARK   61  A    between atoms: _138  and  _139
REMARK   62  A    between atoms: _141  and  _143
REMARK   63  A    between atoms: _143  and  _144
REMARK   64  A    between atoms: _143  and  _146
REMARK   65  A    between atoms: _146  and  _147
REMARK   66  A    between atoms: _150  and  _152
REMARK   67  A    between atoms: _152  and  _153
REMARK   68  A    between atoms: _155  and  _157
REMARK   69  A    between atoms: _157  and  _158
REMARK   70  A    between atoms: _160  and  _162
REMARK   71  A    between atoms: _162  and  _163
REMARK   72  A    between atoms: _162  and  _165
REMARK   73  A    between atoms: _165  and  _166
REMARK   74  A    between atoms: _172  and  _174
REMARK   75  A    between atoms: _174  and  _175
REMARK   76  A    between atoms: _174  and  _177
REMARK   77  A    between atoms: _177  and  _178
REMARK   78  A    between atoms: _181  and  _183
REMARK   79  A    between atoms: _183  and  _184
REMARK   80  A    between atoms: _183  and  _186
REMARK   81  A    between atoms: _189  and  _191
REMARK   82  A    between atoms: _191  and  _192
REMARK   83  A    between atoms: _191  and  _194
REMARK   84  A    between atoms: _194  and  _195
REMARK   85  A    between atoms: _199  and  _200
REMARK   86  A    between atoms: _205  and  _207
REMARK   87  A    between atoms: _207  and  _208
REMARK   88  A    between atoms: _207  and  _210
REMARK   89  A    between atoms: _210  and  _211
REMARK   90  A    between atoms: _215  and  _216
REMARK   91  A    between atoms: _221  and  _223
REMARK   92  A    between atoms: _223  and  _224
REMARK   93  A    between atoms: _223  and  _226
REMARK   94  A    between atoms: _229  and  _231
REMARK   95  A    between atoms: _231  and  _232
REMARK   96  A    between atoms: _231  and  _234
REMARK   97  A    between atoms: _234  and  _235
REMARK   98  A    between atoms: _240  and  _242
REMARK   99  A    between atoms: _242  and  _243
REMARK  100  A    between atoms: _242  and  _245
REMARK  101  A    between atoms: _245  and  _246
REMARK  102  A    between atoms: _249  and  _251
REMARK  103  A    between atoms: _251  and  _252
REMARK  104  A    between atoms: _251  and  _254
REMARK  105  A    between atoms: _254  and  _255
REMARK  106  A    between atoms: _258  and  _260
REMARK  107  A    between atoms: _260  and  _261
REMARK  108  A    between atoms: _263  and  _265
REMARK  109  A    between atoms: _265  and  _266
REMARK  110  A    between atoms: _265  and  _268
REMARK  111  A    between atoms: _268  and  _269
REMARK  112  A    between atoms: _269  and  _270
REMARK  113  A    between atoms: _270  and  _271
REMARK  114  A    between atoms: _280  and  _282
REMARK  115  A    between atoms: _282  and  _283
REMARK  116  A    between atoms: _282  and  _285
REMARK  117  A    between atoms: _285  and  _286
REMARK  118  A    between atoms: _291  and  _293
REMARK  119  A    between atoms: _293  and  _294
REMARK  120  A    between atoms: _293  and  _296
REMARK  121  A    between atoms: _296  and  _297
REMARK  122  A    between atoms: _297  and  _298
REMARK  123  A    between atoms: _298  and  _299
REMARK  124  A    between atoms: _308  and  _310
REMARK  125  A    between atoms: _310  and  _311
REMARK  126  A    between atoms: _310  and  _313
REMARK  127  A    between atoms: _313  and  _314
REMARK  128  A    between atoms: _317  and  _319
REMARK  129  A    between atoms: _319  and  _320
REMARK  130  A    between atoms: _319  and  _322
REMARK  131  A    between atoms: _322  and  _323
REMARK  132  A    between atoms: _326  and  _328
REMARK  133  A    between atoms: _328  and  _329
REMARK  134  A    between atoms: _328  and  _331
REMARK  135  A    between atoms: _331  and  _332
REMARK  136  A    between atoms: _335  and  _337
REMARK  137  A    between atoms: _337  and  _338
REMARK  138  A    between atoms: _337  and  _340
REMARK  139  A    between atoms: _340  and  _341
REMARK  140  A    between atoms: _344  and  _346
REMARK  141  A    between atoms: _346  and  _347
REMARK  142  A    between atoms: _349  and  _351
REMARK  143  A    between atoms: _351  and  _352
REMARK  144  A    between atoms: _355  and  _357
REMARK  145  A    between atoms: _357  and  _358
REMARK  146  A    between atoms: _357  and  _360
REMARK  147  A    between atoms: _360  and  _361
REMARK  148  A    between atoms: _364  and  _366
REMARK  149  A    between atoms: _366  and  _367
REMARK  150  A    between atoms: _366  and  _369
REMARK  151  A    between atoms: _369  and  _370
REMARK  152  A    between atoms: _373  and  _375
REMARK  153  A    between atoms: _375  and  _376
REMARK  154  A    between atoms: _375  and  _378
REMARK  155  A    between atoms: _378  and  _379
REMARK  156  A    between atoms: _382  and  _384
REMARK  157  A    between atoms: _384  and  _385
REMARK  158  A    between atoms: _384  and  _387
REMARK  159  A    between atoms: _390  and  _392
REMARK  160  A    between atoms: _392  and  _393
REMARK  161  A    between atoms: _392  and  _395
REMARK  162  A    between atoms: _395  and  _396
REMARK  163  A    between atoms: _396  and  _397
REMARK  164  A    between atoms: _397  and  _398
REMARK  165  A    between atoms: _398  and  _399
REMARK  166  A    between atoms: _403  and  _405
REMARK  167  A    between atoms: _405  and  _406
REMARK  168  A    between atoms: _405  and  _408
REMARK  169  A    between atoms: _408  and  _409
REMARK  170  A    between atoms: _409  and  _410
REMARK  171  A    between atoms: _412  and  _414
REMARK  172  A    between atoms: _414  and  _415
REMARK  173  A    between atoms: _414  and  _417
REMARK  174  A    between atoms: _417  and  _418
REMARK  175  A    between atoms: _421  and  _423
REMARK  176  A    between atoms: _423  and  _424
REMARK  177  A    between atoms: _426  and  _428
REMARK  178  A    between atoms: _428  and  _429
REMARK  179  A    between atoms: _431  and  _433
REMARK  180  A    between atoms: _433  and  _434
REMARK  181  A    between atoms: _433  and  _436
REMARK  182  A    between atoms: _436  and  _437
REMARK  183  A    between atoms: _440  and  _442
REMARK  184  A    between atoms: _442  and  _443
REMARK  185  A    between atoms: _445  and  _447
REMARK  186  A    between atoms: _447  and  _448
REMARK  187  A    between atoms: _450  and  _452
REMARK  188  A    between atoms: _452  and  _453
REMARK  189  A    between atoms: _452  and  _455
REMARK  190  A    between atoms: _455  and  _456
REMARK  191  A    between atoms: _462  and  _464
REMARK  192  A    between atoms: _464  and  _465
REMARK  193  A    between atoms: _464  and  _467
REMARK  194  A    between atoms: _467  and  _468
REMARK  195  A    between atoms: _471  and  _473
REMARK  196  A    between atoms: _473  and  _474
REMARK  197  A    between atoms: _473  and  _476
REMARK  198  A    between atoms: _476  and  _477
REMARK  199  A    between atoms: _480  and  _482
REMARK  200  A    between atoms: _482  and  _483
REMARK  201  A    between atoms: _482  and  _485
REMARK  202  A    between atoms: _485  and  _486
REMARK  203  A    between atoms: _490  and  _491
REMARK  204  A    between atoms: _496  and  _498
REMARK  205  A    between atoms: _498  and  _499
REMARK  206  A    between atoms: _498  and  _501
REMARK  207  A    between atoms: _504  and  _506
REMARK  208  A    between atoms: _506  and  _507
REMARK  209  A    between atoms: _506  and  _509
REMARK  210  A    between atoms: _509  and  _510
REMARK  211  A    between atoms: _515  and  _517
REMARK  212  A    between atoms: _517  and  _518
REMARK  213  A    between atoms: _517  and  _520
REMARK  214  A    between atoms: _520  and  _521
REMARK  215  A    between atoms: _524  and  _526
REMARK  216  A    between atoms: _526  and  _527
REMARK  217  A    between atoms: _529  and  _531
REMARK  218  A    between atoms: _531  and  _532
REMARK  219  A    between atoms: _531  and  _534
REMARK  220  A    between atoms: _534  and  _535
REMARK  221  A    between atoms: _535  and  _536
REMARK  222  A    between atoms: _536  and  _537
REMARK  223  A    between atoms: _546  and  _548
REMARK  224  A    between atoms: _548  and  _549
REMARK  225  A    between atoms: _548  and  _551
REMARK  226  A    between atoms: _551  and  _552
REMARK                            x       y       z     vdW  Elec       q    Type
REMARK                         _______ _______ _______ _____ _____    ______ ____
ROOT
ATOM      1  O   HOH     1      18.235  20.906  16.221  0.00  0.00    +0.000 OA
ENDROOT
TORSDOF 0
REMARK  Name = ../refined-set-2016/5bry/5bry_pocket.pdb
REMARK  226 active torsions:
REMARK  status: ('A' for Active; 'I' for Inactive)
REMARK    1  A    between atoms: _1  and  _3
REMARK    2  A    between atoms: _3  and  _4
REMARK    3  A    between atoms: _3  and  _6
REMARK    4  A    between atoms: _6  and  _7
REMARK    5  A    between atoms: _7  and  _8
REMARK    6  A    between atoms: _8  and  _9
REMARK    7  A    between atoms: _18  and  _20
REMARK    8  A    between atoms: _20  and  _21
REMARK    9  A    between atoms: _20  and  _23
REMARK   10  A    between atoms: _23  and  _24
REMARK   11  A    between atoms: _27  and  _29
REMARK   12  A    between atoms: _29  and  _30
REMARK   13  A    between atoms: _29  and  _32
REMARK   14  A    between atoms: _32  and  _33
REMARK   15  A    between atoms: _36  and  _38
REMARK   16  A    between atoms: _38  and  _39
REMARK   17  A    between atoms: _38  and  _41
REMARK   18  A    between atoms: _41  and  _42
REMARK   19  A    between atoms: _45  and  _47
REMARK   20  A    between atoms: _47  and  _48
REMARK   21  A    between atoms: _47  and  _50
REMARK   22  A    between atoms: _50  and  _51
REMARK   23  A    between atoms: _54  and  _56
REMARK   24  A    between atoms: _56  and  _57
REMARK   25  A    between atoms: _59  and  _61
REMARK   26  A    between atoms: _61  and  _62
REMARK   27  A    between atoms: _65  and  _67
REMARK   28  A    between atoms: _67  and  _68
REMARK   29  A    between atoms: _67  and  _70
REMARK   30  A    between atoms: _70  and  _71
REMARK   31  A    between atoms: _74  and  _76
REMARK   32  A    between atoms: _76  and  _77
REMARK   33  A    between atoms: _76  and  _79
REMARK   34  A    between atoms: _79  and  _80
REMARK   35  A    between atoms: _83  and  _85
REMARK   36  A    between atoms: _85  and  _86
REMARK   37  A    between atoms: _85  and  _88
REMARK   38  A    between atoms: _88  and  _89
REMARK   39  A    between atoms: _92  and  _94
REMARK   40  A    between atoms: _94  and  _95
REMARK   41  A    between atoms: _94  and  _97
REMARK   42  A    between atoms: _100  and  _102
REMARK   43  A    between atoms: _102  and  _103
REMARK   44  A    between atoms: _102  and  _105
REMARK   45  A    between atoms: _105  and  _106
REMARK   46  A    between atoms: _106  and  _107
REMARK   47  A    between atoms: _107  and  _108
REMARK   48  A    between atoms: _108  and  _109
REMARK   49  A    between atoms: _113  and  _115
REMARK   50  A    between atoms: _115  and  _116
REMARK   51  A    between atoms: _115  and  _118
REMARK   52  A    between atoms: _118  and  _119
REMARK   53  A    between atoms: _119  and  _120
REMARK   54  A    between atoms: _122  and  _124
REMARK   55  A    between atoms: _124  and  _125
REMARK   56  A    between atoms: _124  and  _127
REMARK   57  A    between atoms: _127  and  _128
REMARK   58  A    between atoms: _131  and  _133
REMARK   59  A    between atoms: _133  and  _134
REMARK   60  A    between atoms: _136  and  _138
REMARK   61  A    between atoms: _138  and  _139
REMARK   62  A    between atoms: _141  and  _143
REMARK   63  A    between atoms: _143  and  _144
REMARK   64  A    between atoms: _143  and  _146
REMARK   65  A    between atoms: _146  and  _147
REMARK   66  A    between atoms: _150  and  _152
REMARK   67  A    between atoms: _152  and  _153
REMARK   68  A    between atoms: _155  and  _157
REMARK   69  A    between atoms: _157  and  _158
REMARK   70  A    between atoms: _160  and  _162
REMARK   71  A    between atoms: _162  and  _163
REMARK   72  A    between atoms: _162  and  _165
REMARK   73  A    between atoms: _165  and  _166
REMARK   74  A    between atoms: _172  and  _174
REMARK   75  A    between atoms: _174  and  _175
REMARK   76  A    between atoms: _174  and  _177
REMARK   77  A    between atoms: _177  and  _178
REMARK   78  A    between atoms: _181  and  _183
REMARK   79  A    between atoms: _183  and  _184
REMARK   80  A    between atoms: _183  and  _186
REMARK   81  A    between atoms: _189  and  _191
REMARK   82  A    between atoms: _191  and  _192
REMARK   83  A    between atoms: _191  and  _194
REMARK   84  A    between atoms: _194  and  _195
REMARK   85  A    between atoms: _199  and  _200
REMARK   86  A    between atoms: _205  and  _207
REMARK   87  A    between atoms: _207  and  _208
REMARK   88  A    between atoms: _207  and  _210
REMARK   89  A    between atoms: _210  and  _211
REMARK   90  A    between atoms: _215  and  _216
REMARK   91  A    between atoms: _221  and  _223
REMARK   92  A    between atoms: _223  and  _224
REMARK   93  A    between atoms: _223  and  _226
REMARK   94  A    between atoms: _229  and  _231
REMARK   95  A    between atoms: _231  and  _232
REMARK   96  A    between atoms: _231  and  _234
REMARK   97  A    between atoms: _234  and  _235
REMARK   98  A    between atoms: _240  and  _242
REMARK   99  A    between atoms: _242  and  _243
REMARK  100  A    between atoms: _242  and  _245
REMARK  101  A    between atoms: _245  and  _246
REMARK  102  A    between atoms: _249  and  _251
REMARK  103  A    between atoms: _251  and  _252
REMARK  104  A    between atoms: _251  and  _254
REMARK  105  A    between atoms: _254  and  _255
REMARK  106  A    between atoms: _258  and  _260
REMARK  107  A    between atoms: _260  and  _261
REMARK  108  A    between atoms: _263  and  _265
REMARK  109  A    between atoms: _265  and  _266
REMARK  110  A    between atoms: _265  and  _268
REMARK  111  A    between atoms: _268  and  _269
REMARK  112  A    between atoms: _269  and  _270
REMARK  113  A    between atoms: _270  and  _271
REMARK  114  A    between atoms: _280  and  _282
REMARK  115  A    between atoms: _282  and  _283
REMARK  116  A    between atoms: _282  and  _285
REMARK  117  A    between atoms: _285  and  _286
REMARK  118  A    between atoms: _291  and  _293
REMARK  119  A    between atoms: _293  and  _294
REMARK  120  A    between atoms: _293  and  _296
REMARK  121  A    between atoms: _296  and  _297
REMARK  122  A    between atoms: _297  and  _298
REMARK  123  A    between atoms: _298  and  _299
REMARK  124  A    between atoms: _308  and  _310
REMARK  125  A    between atoms: _310  and  _311
REMARK  126  A    between atoms: _310  and  _313
REMARK  127  A    between atoms: _313  and  _314
REMARK  128  A    between atoms: _317  and  _319
REMARK  129  A    between atoms: _319  and  _320
REMARK  130  A    between atoms: _319  and  _322
REMARK  131  A    between atoms: _322  and  _323
REMARK  132  A    between atoms: _326  and  _328
REMARK  133  A    between atoms: _328  and  _329
REMARK  134  A    between atoms: _328  and  _331
REMARK  135  A    between atoms: _331  and  _332
REMARK  136  A    between atoms: _335  and  _337
REMARK  137  A    between atoms: _337  and  _338
REMARK  138  A    between atoms: _337  and  _340
REMARK  139  A    between atoms: _340  and  _341
REMARK  140  A    between atoms: _344  and  _346
REMARK  141  A    between atoms: _346  and  _347
REMARK  142  A    between atoms: _349  and  _351
REMARK  143  A    between atoms: _351  and  _352
REMARK  144  A    between atoms: _355  and  _357
REMARK  145  A    between atoms: _357  and  _358
REMARK  146  A    between atoms: _357  and  _360
REMARK  147  A    between atoms: _360  and  _361
REMARK  148  A    between atoms: _364  and  _366
REMARK  149  A    between atoms: _366  and  _367
REMARK  150  A    between atoms: _366  and  _369
REMARK  151  A    between atoms: _369  and  _370
REMARK  152  A    between atoms: _373  and  _375
REMARK  153  A    between atoms: _375  and  _376
REMARK  154  A    between atoms: _375  and  _378
REMARK  155  A    between atoms: _378  and  _379
REMARK  156  A    between atoms: _382  and  _384
REMARK  157  A    between atoms: _384  and  _385
REMARK  158  A    between atoms: _384  and  _387
REMARK  159  A    between atoms: _390  and  _392
REMARK  160  A    between atoms: _392  and  _393
REMARK  161  A    between atoms: _392  and  _395
REMARK  162  A    between atoms: _395  and  _396
REMARK  163  A    between atoms: _396  and  _397
REMARK  164  A    between atoms: _397  and  _398
REMARK  165  A    between atoms: _398  and  _399
REMARK  166  A    between atoms: _403  and  _405
REMARK  167  A    between atoms: _405  and  _406
REMARK  168  A    between atoms: _405  and  _408
REMARK  169  A    between atoms: _408  and  _409
REMARK  170  A    between atoms: _409  and  _410
REMARK  171  A    between atoms: _412  and  _414
REMARK  172  A    between atoms: _414  and  _415
REMARK  173  A    between atoms: _414  and  _417
REMARK  174  A    between atoms: _417  and  _418
REMARK  175  A    between atoms: _421  and  _423
REMARK  176  A    between atoms: _423  and  _424
REMARK  177  A    between atoms: _426  and  _428
REMARK  178  A    between atoms: _428  and  _429
REMARK  179  A    between atoms: _431  and  _433
REMARK  180  A    between atoms: _433  and  _434
REMARK  181  A    between atoms: _433  and  _436
REMARK  182  A    between atoms: _436  and  _437
REMARK  183  A    between atoms: _440  and  _442
REMARK  184  A    between atoms: _442  and  _443
REMARK  185  A    between atoms: _445  and  _447
REMARK  186  A    between atoms: _447  and  _448
REMARK  187  A    between atoms: _450  and  _452
REMARK  188  A    between atoms: _452  and  _453
REMARK  189  A    between atoms: _452  and  _455
REMARK  190  A    between atoms: _455  and  _456
REMARK  191  A    between atoms: _462  and  _464
REMARK  192  A    between atoms: _464  and  _465
REMARK  193  A    between atoms: _464  and  _467
REMARK  194  A    between atoms: _467  and  _468
REMARK  195  A    between atoms: _471  and  _473
REMARK  196  A    between atoms: _473  and  _474
REMARK  197  A    between atoms: _473  and  _476
REMARK  198  A    between atoms: _476  and  _477
REMARK  199  A    between atoms: _480  and  _482
REMARK  200  A    between atoms: _482  and  _483
REMARK  201  A    between atoms: _482  and  _485
REMARK  202  A    between atoms: _485  and  _486
REMARK  203  A    between atoms: _490  and  _491
REMARK  204  A    between atoms: _496  and  _498
REMARK  205  A    between atoms: _498  and  _499
REMARK  206  A    between atoms: _498  and  _501
REMARK  207  A    between atoms: _504  and  _506
REMARK  208  A    between atoms: _506  and  _507
REMARK  209  A    between atoms: _506  and  _509
REMARK  210  A    between atoms: _509  and  _510
REMARK  211  A    between atoms: _515  and  _517
REMARK  212  A    between atoms: _517  and  _518
REMARK  213  A    between atoms: _517  and  _520
REMARK  214  A    between atoms: _520  and  _521
REMARK  215  A    between atoms: _524  and  _526
REMARK  216  A    between atoms: _526  and  _527
REMARK  217  A    between atoms: _529  and  _531
REMARK  218  A    between atoms: _531  and  _532
REMARK  219  A    between atoms: _531  and  _534
REMARK  220  A    between atoms: _534  and  _535
REMARK  221  A    between atoms: _535  and  _536
REMARK  222  A    between atoms: _536  and  _537
REMARK  223  A    between atoms: _546  and  _548
REMARK  224  A    between atoms: _548  and  _549
REMARK  225  A    between atoms: _548  and  _551
REMARK  226  A    between atoms: _551  and  _552
REMARK                            x       y       z     vdW  Elec       q    Type
REMARK                         _______ _______ _______ _____ _____    ______ ____
ROOT
ATOM      1  O   HOH     1      11.185  15.099  16.338  0.00  0.00    +0.000 OA
ENDROOT
TORSDOF 0
REMARK  Name = ../refined-set-2016/5bry/5bry_pocket.pdb
REMARK  226 active torsions:
REMARK  status: ('A' for Active; 'I' for Inactive)
REMARK    1  A    between atoms: _1  and  _3
REMARK    2  A    between atoms: _3  and  _4
REMARK    3  A    between atoms: _3  and  _6
REMARK    4  A    between atoms: _6  and  _7
REMARK    5  A    between atoms: _7  and  _8
REMARK    6  A    between atoms: _8  and  _9
REMARK    7  A    between atoms: _18  and  _20
REMARK    8  A    between atoms: _20  and  _21
REMARK    9  A    between atoms: _20  and  _23
REMARK   10  A    between atoms: _23  and  _24
REMARK   11  A    between atoms: _27  and  _29
REMARK   12  A    between atoms: _29  and  _30
REMARK   13  A    between atoms: _29  and  _32
REMARK   14  A    between atoms: _32  and  _33
REMARK   15  A    between atoms: _36  and  _38
REMARK   16  A    between atoms: _38  and  _39
REMARK   17  A    between atoms: _38  and  _41
REMARK   18  A    between atoms: _41  and  _42
REMARK   19  A    between atoms: _45  and  _47
REMARK   20  A    between atoms: _47  and  _48
REMARK   21  A    between atoms: _47  and  _50
REMARK   22  A    between atoms: _50  and  _51
REMARK   23  A    between atoms: _54  and  _56
REMARK   24  A    between atoms: _56  and  _57
REMARK   25  A    between atoms: _59  and  _61
REMARK   26  A    between atoms: _61  and  _62
REMARK   27  A    between atoms: _65  and  _67
REMARK   28  A    between atoms: _67  and  _68
REMARK   29  A    between atoms: _67  and  _70
REMARK   30  A    between atoms: _70  and  _71
REMARK   31  A    between atoms: _74  and  _76
REMARK   32  A    between atoms: _76  and  _77
REMARK   33  A    between atoms: _76  and  _79
REMARK   34  A    between atoms: _79  and  _80
REMARK   35  A    between atoms: _83  and  _85
REMARK   36  A    between atoms: _85  and  _86
REMARK   37  A    between atoms: _85  and  _88
REMARK   38  A    between atoms: _88  and  _89
REMARK   39  A    between atoms: _92  and  _94
REMARK   40  A    between atoms: _94  and  _95
REMARK   41  A    between atoms: _94  and  _97
REMARK   42  A    between atoms: _100  and  _102
REMARK   43  A    between atoms: _102  and  _103
REMARK   44  A    between atoms: _102  and  _105
REMARK   45  A    between atoms: _105  and  _106
REMARK   46  A    between atoms: _106  and  _107
REMARK   47  A    between atoms: _107  and  _108
REMARK   48  A    between atoms: _108  and  _109
REMARK   49  A    between atoms: _113  and  _115
REMARK   50  A    between atoms: _115  and  _116
REMARK   51  A    between atoms: _115  and  _118
REMARK   52  A    between atoms: _118  and  _119
REMARK   53  A    between atoms: _119  and  _120
REMARK   54  A    between atoms: _122  and  _124
REMARK   55  A    between atoms: _124  and  _125
REMARK   56  A    between atoms: _124  and  _127
REMARK   57  A    between atoms: _127  and  _128
REMARK   58  A    between atoms: _131  and  _133
REMARK   59  A    between atoms: _133  and  _134
REMARK   60  A    between atoms: _136  and  _138
REMARK   61  A    between atoms: _138  and  _139
REMARK   62  A    between atoms: _141  and  _143
REMARK   63  A    between atoms: _143  and  _144
REMARK   64  A    between atoms: _143  and  _146
REMARK   65  A    between atoms: _146  and  _147
REMARK   66  A    between atoms: _150  and  _152
REMARK   67  A    between atoms: _152  and  _153
REMARK   68  A    between atoms: _155  and  _157
REMARK   69  A    between atoms: _157  and  _158
REMARK   70  A    between atoms: _160  and  _162
REMARK   71  A    between atoms: _162  and  _163
REMARK   72  A    between atoms: _162  and  _165
REMARK   73  A    between atoms: _165  and  _166
REMARK   74  A    between atoms: _172  and  _174
REMARK   75  A    between atoms: _174  and  _175
REMARK   76  A    between atoms: _174  and  _177
REMARK   77  A    between atoms: _177  and  _178
REMARK   78  A    between atoms: _181  and  _183
REMARK   79  A    between atoms: _183  and  _184
REMARK   80  A    between atoms: _183  and  _186
REMARK   81  A    between atoms: _189  and  _191
REMARK   82  A    between atoms: _191  and  _192
REMARK   83  A    between atoms: _191  and  _194
REMARK   84  A    between atoms: _194  and  _195
REMARK   85  A    between atoms: _199  and  _200
REMARK   86  A    between atoms: _205  and  _207
REMARK   87  A    between atoms: _207  and  _208
REMARK   88  A    between atoms: _207  and  _210
REMARK   89  A    between atoms: _210  and  _211
REMARK   90  A    between atoms: _215  and  _216
REMARK   91  A    between atoms: _221  and  _223
REMARK   92  A    between atoms: _223  and  _224
REMARK   93  A    between atoms: _223  and  _226
REMARK   94  A    between atoms: _229  and  _231
REMARK   95  A    between atoms: _231  and  _232
REMARK   96  A    between atoms: _231  and  _234
REMARK   97  A    between atoms: _234  and  _235
REMARK   98  A    between atoms: _240  and  _242
REMARK   99  A    between atoms: _242  and  _243
REMARK  100  A    between atoms: _242  and  _245
REMARK  101  A    between atoms: _245  and  _246
REMARK  102  A    between atoms: _249  and  _251
REMARK  103  A    between atoms: _251  and  _252
REMARK  104  A    between atoms: _251  and  _254
REMARK  105  A    between atoms: _254  and  _255
REMARK  106  A    between atoms: _258  and  _260
REMARK  107  A    between atoms: _260  and  _261
REMARK  108  A    between atoms: _263  and  _265
REMARK  109  A    between atoms: _265  and  _266
REMARK  110  A    between atoms: _265  and  _268
REMARK  111  A    between atoms: _268  and  _269
REMARK  112  A    between atoms: _269  and  _270
REMARK  113  A    between atoms: _270  and  _271
REMARK  114  A    between atoms: _280  and  _282
REMARK  115  A    between atoms: _282  and  _283
REMARK  116  A    between atoms: _282  and  _285
REMARK  117  A    between atoms: _285  and  _286
REMARK  118  A    between atoms: _291  and  _293
REMARK  119  A    between atoms: _293  and  _294
REMARK  120  A    between atoms: _293  and  _296
REMARK  121  A    between atoms: _296  and  _297
REMARK  122  A    between atoms: _297  and  _298
REMARK  123  A    between atoms: _298  and  _299
REMARK  124  A    between atoms: _308  and  _310
REMARK  125  A    between atoms: _310  and  _311
REMARK  126  A    between atoms: _310  and  _313
REMARK  127  A    between atoms: _313  and  _314
REMARK  128  A    between atoms: _317  and  _319
REMARK  129  A    between atoms: _319  and  _320
REMARK  130  A    between atoms: _319  and  _322
REMARK  131  A    between atoms: _322  and  _323
REMARK  132  A    between atoms: _326  and  _328
REMARK  133  A    between atoms: _328  and  _329
REMARK  134  A    between atoms: _328  and  _331
REMARK  135  A    between atoms: _331  and  _332
REMARK  136  A    between atoms: _335  and  _337
REMARK  137  A    between atoms: _337  and  _338
REMARK  138  A    between atoms: _337  and  _340
REMARK  139  A    between atoms: _340  and  _341
REMARK  140  A    between atoms: _344  and  _346
REMARK  141  A    between atoms: _346  and  _347
REMARK  142  A    between atoms: _349  and  _351
REMARK  143  A    between atoms: _351  and  _352
REMARK  144  A    between atoms: _355  and  _357
REMARK  145  A    between atoms: _357  and  _358
REMARK  146  A    between atoms: _357  and  _360
REMARK  147  A    between atoms: _360  and  _361
REMARK  148  A    between atoms: _364  and  _366
REMARK  149  A    between atoms: _366  and  _367
REMARK  150  A    between atoms: _366  and  _369
REMARK  151  A    between atoms: _369  and  _370
REMARK  152  A    between atoms: _373  and  _375
REMARK  153  A    between atoms: _375  and  _376
REMARK  154  A    between atoms: _375  and  _378
REMARK  155  A    between atoms: _378  and  _379
REMARK  156  A    between atoms: _382  and  _384
REMARK  157  A    between atoms: _384  and  _385
REMARK  158  A    between atoms: _384  and  _387
REMARK  159  A    between atoms: _390  and  _392
REMARK  160  A    between atoms: _392  and  _393
REMARK  161  A    between atoms: _392  and  _395
REMARK  162  A    between atoms: _395  and  _396
REMARK  163  A    between atoms: _396  and  _397
REMARK  164  A    between atoms: _397  and  _398
REMARK  165  A    between atoms: _398  and  _399
REMARK  166  A    between atoms: _403  and  _405
REMARK  167  A    between atoms: _405  and  _406
REMARK  168  A    between atoms: _405  and  _408
REMARK  169  A    between atoms: _408  and  _409
REMARK  170  A    between atoms: _409  and  _410
REMARK  171  A    between atoms: _412  and  _414
REMARK  172  A    between atoms: _414  and  _415
REMARK  173  A    between atoms: _414  and  _417
REMARK  174  A    between atoms: _417  and  _418
REMARK  175  A    between atoms: _421  and  _423
REMARK  176  A    between atoms: _423  and  _424
REMARK  177  A    between atoms: _426  and  _428
REMARK  178  A    between atoms: _428  and  _429
REMARK  179  A    between atoms: _431  and  _433
REMARK  180  A    between atoms: _433  and  _434
REMARK  181  A    between atoms: _433  and  _436
REMARK  182  A    between atoms: _436  and  _437
REMARK  183  A    between atoms: _440  and  _442
REMARK  184  A    between atoms: _442  and  _443
REMARK  185  A    between atoms: _445  and  _447
REMARK  186  A    between atoms: _447  and  _448
REMARK  187  A    between atoms: _450  and  _452
REMARK  188  A    between atoms: _452  and  _453
REMARK  189  A    between atoms: _452  and  _455
REMARK  190  A    between atoms: _455  and  _456
REMARK  191  A    between atoms: _462  and  _464
REMARK  192  A    between atoms: _464  and  _465
REMARK  193  A    between atoms: _464  and  _467
REMARK  194  A    between atoms: _467  and  _468
REMARK  195  A    between atoms: _471  and  _473
REMARK  196  A    between atoms: _473  and  _474
REMARK  197  A    between atoms: _473  and  _476
REMARK  198  A    between atoms: _476  and  _477
REMARK  199  A    between atoms: _480  and  _482
REMARK  200  A    between atoms: _482  and  _483
REMARK  201  A    between atoms: _482  and  _485
REMARK  202  A    between atoms: _485  and  _486
REMARK  203  A    between atoms: _490  and  _491
REMARK  204  A    between atoms: _496  and  _498
REMARK  205  A    between atoms: _498  and  _499
REMARK  206  A    between atoms: _498  and  _501
REMARK  207  A    between atoms: _504  and  _506
REMARK  208  A    between atoms: _506  and  _507
REMARK  209  A    between atoms: _506  and  _509
REMARK  210  A    between atoms: _509  and  _510
REMARK  211  A    between atoms: _515  and  _517
REMARK  212  A    between atoms: _517  and  _518
REMARK  213  A    between atoms: _517  and  _520
REMARK  214  A    between atoms: _520  and  _521
REMARK  215  A    between atoms: _524  and  _526
REMARK  216  A    between atoms: _526  and  _527
REMARK  217  A    between atoms: _529  and  _531
REMARK  218  A    between atoms: _531  and  _532
REMARK  219  A    between atoms: _531  and  _534
REMARK  220  A    between atoms: _534  and  _535
REMARK  221  A    between atoms: _535  and  _536
REMARK  222  A    between atoms: _536  and  _537
REMARK  223  A    between atoms: _546  and  _548
REMARK  224  A    between atoms: _548  and  _549
REMARK  225  A    between atoms: _548  and  _551
REMARK  226  A    between atoms: _551  and  _552
REMARK                            x       y       z     vdW  Elec       q    Type
REMARK                         _______ _______ _______ _____ _____    ______ ____
ROOT
ATOM      1  O   HOH     1       9.341  16.503  16.653  0.00  0.00    +0.000 OA
ENDROOT
TORSDOF 0
REMARK  Name = ../refined-set-2016/5bry/5bry_pocket.pdb
REMARK  226 active torsions:
REMARK  status: ('A' for Active; 'I' for Inactive)
REMARK    1  A    between atoms: _1  and  _3
REMARK    2  A    between atoms: _3  and  _4
REMARK    3  A    between atoms: _3  and  _6
REMARK    4  A    between atoms: _6  and  _7
REMARK    5  A    between atoms: _7  and  _8
REMARK    6  A    between atoms: _8  and  _9
REMARK    7  A    between atoms: _18  and  _20
REMARK    8  A    between atoms: _20  and  _21
REMARK    9  A    between atoms: _20  and  _23
REMARK   10  A    between atoms: _23  and  _24
REMARK   11  A    between atoms: _27  and  _29
REMARK   12  A    between atoms: _29  and  _30
REMARK   13  A    between atoms: _29  and  _32
REMARK   14  A    between atoms: _32  and  _33
REMARK   15  A    between atoms: _36  and  _38
REMARK   16  A    between atoms: _38  and  _39
REMARK   17  A    between atoms: _38  and  _41
REMARK   18  A    between atoms: _41  and  _42
REMARK   19  A    between atoms: _45  and  _47
REMARK   20  A    between atoms: _47  and  _48
REMARK   21  A    between atoms: _47  and  _50
REMARK   22  A    between atoms: _50  and  _51
REMARK   23  A    between atoms: _54  and  _56
REMARK   24  A    between atoms: _56  and  _57
REMARK   25  A    between atoms: _59  and  _61
REMARK   26  A    between atoms: _61  and  _62
REMARK   27  A    between atoms: _65  and  _67
REMARK   28  A    between atoms: _67  and  _68
REMARK   29  A    between atoms: _67  and  _70
REMARK   30  A    between atoms: _70  and  _71
REMARK   31  A    between atoms: _74  and  _76
REMARK   32  A    between atoms: _76  and  _77
REMARK   33  A    between atoms: _76  and  _79
REMARK   34  A    between atoms: _79  and  _80
REMARK   35  A    between atoms: _83  and  _85
REMARK   36  A    between atoms: _85  and  _86
REMARK   37  A    between atoms: _85  and  _88
REMARK   38  A    between atoms: _88  and  _89
REMARK   39  A    between atoms: _92  and  _94
REMARK   40  A    between atoms: _94  and  _95
REMARK   41  A    between atoms: _94  and  _97
REMARK   42  A    between atoms: _100  and  _102
REMARK   43  A    between atoms: _102  and  _103
REMARK   44  A    between atoms: _102  and  _105
REMARK   45  A    between atoms: _105  and  _106
REMARK   46  A    between atoms: _106  and  _107
REMARK   47  A    between atoms: _107  and  _108
REMARK   48  A    between atoms: _108  and  _109
REMARK   49  A    between atoms: _113  and  _115
REMARK   50  A    between atoms: _115  and  _116
REMARK   51  A    between atoms: _115  and  _118
REMARK   52  A    between atoms: _118  and  _119
REMARK   53  A    between atoms: _119  and  _120
REMARK   54  A    between atoms: _122  and  _124
REMARK   55  A    between atoms: _124  and  _125
REMARK   56  A    between atoms: _124  and  _127
REMARK   57  A    between atoms: _127  and  _128
REMARK   58  A    between atoms: _131  and  _133
REMARK   59  A    between atoms: _133  and  _134
REMARK   60  A    between atoms: _136  and  _138
REMARK   61  A    between atoms: _138  and  _139
REMARK   62  A    between atoms: _141  and  _143
REMARK   63  A    between atoms: _143  and  _144
REMARK   64  A    between atoms: _143  and  _146
REMARK   65  A    between atoms: _146  and  _147
REMARK   66  A    between atoms: _150  and  _152
REMARK   67  A    between atoms: _152  and  _153
REMARK   68  A    between atoms: _155  and  _157
REMARK   69  A    between atoms: _157  and  _158
REMARK   70  A    between atoms: _160  and  _162
REMARK   71  A    between atoms: _162  and  _163
REMARK   72  A    between atoms: _162  and  _165
REMARK   73  A    between atoms: _165  and  _166
REMARK   74  A    between atoms: _172  and  _174
REMARK   75  A    between atoms: _174  and  _175
REMARK   76  A    between atoms: _174  and  _177
REMARK   77  A    between atoms: _177  and  _178
REMARK   78  A    between atoms: _181  and  _183
REMARK   79  A    between atoms: _183  and  _184
REMARK   80  A    between atoms: _183  and  _186
REMARK   81  A    between atoms: _189  and  _191
REMARK   82  A    between atoms: _191  and  _192
REMARK   83  A    between atoms: _191  and  _194
REMARK   84  A    between atoms: _194  and  _195
REMARK   85  A    between atoms: _199  and  _200
REMARK   86  A    between atoms: _205  and  _207
REMARK   87  A    between atoms: _207  and  _208
REMARK   88  A    between atoms: _207  and  _210
REMARK   89  A    between atoms: _210  and  _211
REMARK   90  A    between atoms: _215  and  _216
REMARK   91  A    between atoms: _221  and  _223
REMARK   92  A    between atoms: _223  and  _224
REMARK   93  A    between atoms: _223  and  _226
REMARK   94  A    between atoms: _229  and  _231
REMARK   95  A    between atoms: _231  and  _232
REMARK   96  A    between atoms: _231  and  _234
REMARK   97  A    between atoms: _234  and  _235
REMARK   98  A    between atoms: _240  and  _242
REMARK   99  A    between atoms: _242  and  _243
REMARK  100  A    between atoms: _242  and  _245
REMARK  101  A    between atoms: _245  and  _246
REMARK  102  A    between atoms: _249  and  _251
REMARK  103  A    between atoms: _251  and  _252
REMARK  104  A    between atoms: _251  and  _254
REMARK  105  A    between atoms: _254  and  _255
REMARK  106  A    between atoms: _258  and  _260
REMARK  107  A    between atoms: _260  and  _261
REMARK  108  A    between atoms: _263  and  _265
REMARK  109  A    between atoms: _265  and  _266
REMARK  110  A    between atoms: _265  and  _268
REMARK  111  A    between atoms: _268  and  _269
REMARK  112  A    between atoms: _269  and  _270
REMARK  113  A    between atoms: _270  and  _271
REMARK  114  A    between atoms: _280  and  _282
REMARK  115  A    between atoms: _282  and  _283
REMARK  116  A    between atoms: _282  and  _285
REMARK  117  A    between atoms: _285  and  _286
REMARK  118  A    between atoms: _291  and  _293
REMARK  119  A    between atoms: _293  and  _294
REMARK  120  A    between atoms: _293  and  _296
REMARK  121  A    between atoms: _296  and  _297
REMARK  122  A    between atoms: _297  and  _298
REMARK  123  A    between atoms: _298  and  _299
REMARK  124  A    between atoms: _308  and  _310
REMARK  125  A    between atoms: _310  and  _311
REMARK  126  A    between atoms: _310  and  _313
REMARK  127  A    between atoms: _313  and  _314
REMARK  128  A    between atoms: _317  and  _319
REMARK  129  A    between atoms: _319  and  _320
REMARK  130  A    between atoms: _319  and  _322
REMARK  131  A    between atoms: _322  and  _323
REMARK  132  A    between atoms: _326  and  _328
REMARK  133  A    between atoms: _328  and  _329
REMARK  134  A    between atoms: _328  and  _331
REMARK  135  A    between atoms: _331  and  _332
REMARK  136  A    between atoms: _335  and  _337
REMARK  137  A    between atoms: _337  and  _338
REMARK  138  A    between atoms: _337  and  _340
REMARK  139  A    between atoms: _340  and  _341
REMARK  140  A    between atoms: _344  and  _346
REMARK  141  A    between atoms: _346  and  _347
REMARK  142  A    between atoms: _349  and  _351
REMARK  143  A    between atoms: _351  and  _352
REMARK  144  A    between atoms: _355  and  _357
REMARK  145  A    between atoms: _357  and  _358
REMARK  146  A    between atoms: _357  and  _360
REMARK  147  A    between atoms: _360  and  _361
REMARK  148  A    between atoms: _364  and  _366
REMARK  149  A    between atoms: _366  and  _367
REMARK  150  A    between atoms: _366  and  _369
REMARK  151  A    between atoms: _369  and  _370
REMARK  152  A    between atoms: _373  and  _375
REMARK  153  A    between atoms: _375  and  _376
REMARK  154  A    between atoms: _375  and  _378
REMARK  155  A    between atoms: _378  and  _379
REMARK  156  A    between atoms: _382  and  _384
REMARK  157  A    between atoms: _384  and  _385
REMARK  158  A    between atoms: _384  and  _387
REMARK  159  A    between atoms: _390  and  _392
REMARK  160  A    between atoms: _392  and  _393
REMARK  161  A    between atoms: _392  and  _395
REMARK  162  A    between atoms: _395  and  _396
REMARK  163  A    between atoms: _396  and  _397
REMARK  164  A    between atoms: _397  and  _398
REMARK  165  A    between atoms: _398  and  _399
REMARK  166  A    between atoms: _403  and  _405
REMARK  167  A    between atoms: _405  and  _406
REMARK  168  A    between atoms: _405  and  _408
REMARK  169  A    between atoms: _408  and  _409
REMARK  170  A    between atoms: _409  and  _410
REMARK  171  A    between atoms: _412  and  _414
REMARK  172  A    between atoms: _414  and  _415
REMARK  173  A    between atoms: _414  and  _417
REMARK  174  A    between atoms: _417  and  _418
REMARK  175  A    between atoms: _421  and  _423
REMARK  176  A    between atoms: _423  and  _424
REMARK  177  A    between atoms: _426  and  _428
REMARK  178  A    between atoms: _428  and  _429
REMARK  179  A    between atoms: _431  and  _433
REMARK  180  A    between atoms: _433  and  _434
REMARK  181  A    between atoms: _433  and  _436
REMARK  182  A    between atoms: _436  and  _437
REMARK  183  A    between atoms: _440  and  _442
REMARK  184  A    between atoms: _442  and  _443
REMARK  185  A    between atoms: _445  and  _447
REMARK  186  A    between atoms: _447  and  _448
REMARK  187  A    between atoms: _450  and  _452
REMARK  188  A    between atoms: _452  and  _453
REMARK  189  A    between atoms: _452  and  _455
REMARK  190  A    between atoms: _455  and  _456
REMARK  191  A    between atoms: _462  and  _464
REMARK  192  A    between atoms: _464  and  _465
REMARK  193  A    between atoms: _464  and  _467
REMARK  194  A    between atoms: _467  and  _468
REMARK  195  A    between atoms: _471  and  _473
REMARK  196  A    between atoms: _473  and  _474
REMARK  197  A    between atoms: _473  and  _476
REMARK  198  A    between atoms: _476  and  _477
REMARK  199  A    between atoms: _480  and  _482
REMARK  200  A    between atoms: _482  and  _483
REMARK  201  A    between atoms: _482  and  _485
REMARK  202  A    between atoms: _485  and  _486
REMARK  203  A    between atoms: _490  and  _491
REMARK  204  A    between atoms: _496  and  _498
REMARK  205  A    between atoms: _498  and  _499
REMARK  206  A    between atoms: _498  and  _501
REMARK  207  A    between atoms: _504  and  _506
REMARK  208  A    between atoms: _506  and  _507
REMARK  209  A    between atoms: _506  and  _509
REMARK  210  A    between atoms: _509  and  _510
REMARK  211  A    between atoms: _515  and  _517
REMARK  212  A    between atoms: _517  and  _518
REMARK  213  A    between atoms: _517  and  _520
REMARK  214  A    between atoms: _520  and  _521
REMARK  215  A    between atoms: _524  and  _526
REMARK  216  A    between atoms: _526  and  _527
REMARK  217  A    between atoms: _529  and  _531
REMARK  218  A    between atoms: _531  and  _532
REMARK  219  A    between atoms: _531  and  _534
REMARK  220  A    between atoms: _534  and  _535
REMARK  221  A    between atoms: _535  and  _536
REMARK  222  A    between atoms: _536  and  _537
REMARK  223  A    between atoms: _546  and  _548
REMARK  224  A    between atoms: _548  and  _549
REMARK  225  A    between atoms: _548  and  _551
REMARK  226  A    between atoms: _551  and  _552
REMARK                            x       y       z     vdW  Elec       q    Type
REMARK                         _______ _______ _______ _____ _____    ______ ____
ROOT
ATOM      1  O   HOH     1       7.392  24.064  17.981  0.00  0.00    +0.000 OA
ENDROOT
TORSDOF 0
REMARK  Name = ../refined-set-2016/5bry/5bry_pocket.pdb
REMARK  226 active torsions:
REMARK  status: ('A' for Active; 'I' for Inactive)
REMARK    1  A    between atoms: _1  and  _3
REMARK    2  A    between atoms: _3  and  _4
REMARK    3  A    between atoms: _3  and  _6
REMARK    4  A    between atoms: _6  and  _7
REMARK    5  A    between atoms: _7  and  _8
REMARK    6  A    between atoms: _8  and  _9
REMARK    7  A    between atoms: _18  and  _20
REMARK    8  A    between atoms: _20  and  _21
REMARK    9  A    between atoms: _20  and  _23
REMARK   10  A    between atoms: _23  and  _24
REMARK   11  A    between atoms: _27  and  _29
REMARK   12  A    between atoms: _29  and  _30
REMARK   13  A    between atoms: _29  and  _32
REMARK   14  A    between atoms: _32  and  _33
REMARK   15  A    between atoms: _36  and  _38
REMARK   16  A    between atoms: _38  and  _39
REMARK   17  A    between atoms: _38  and  _41
REMARK   18  A    between atoms: _41  and  _42
REMARK   19  A    between atoms: _45  and  _47
REMARK   20  A    between atoms: _47  and  _48
REMARK   21  A    between atoms: _47  and  _50
REMARK   22  A    between atoms: _50  and  _51
REMARK   23  A    between atoms: _54  and  _56
REMARK   24  A    between atoms: _56  and  _57
REMARK   25  A    between atoms: _59  and  _61
REMARK   26  A    between atoms: _61  and  _62
REMARK   27  A    between atoms: _65  and  _67
REMARK   28  A    between atoms: _67  and  _68
REMARK   29  A    between atoms: _67  and  _70
REMARK   30  A    between atoms: _70  and  _71
REMARK   31  A    between atoms: _74  and  _76
REMARK   32  A    between atoms: _76  and  _77
REMARK   33  A    between atoms: _76  and  _79
REMARK   34  A    between atoms: _79  and  _80
REMARK   35  A    between atoms: _83  and  _85
REMARK   36  A    between atoms: _85  and  _86
REMARK   37  A    between atoms: _85  and  _88
REMARK   38  A    between atoms: _88  and  _89
REMARK   39  A    between atoms: _92  and  _94
REMARK   40  A    between atoms: _94  and  _95
REMARK   41  A    between atoms: _94  and  _97
REMARK   42  A    between atoms: _100  and  _102
REMARK   43  A    between atoms: _102  and  _103
REMARK   44  A    between atoms: _102  and  _105
REMARK   45  A    between atoms: _105  and  _106
REMARK   46  A    between atoms: _106  and  _107
REMARK   47  A    between atoms: _107  and  _108
REMARK   48  A    between atoms: _108  and  _109
REMARK   49  A    between atoms: _113  and  _115
REMARK   50  A    between atoms: _115  and  _116
REMARK   51  A    between atoms: _115  and  _118
REMARK   52  A    between atoms: _118  and  _119
REMARK   53  A    between atoms: _119  and  _120
REMARK   54  A    between atoms: _122  and  _124
REMARK   55  A    between atoms: _124  and  _125
REMARK   56  A    between atoms: _124  and  _127
REMARK   57  A    between atoms: _127  and  _128
REMARK   58  A    between atoms: _131  and  _133
REMARK   59  A    between atoms: _133  and  _134
REMARK   60  A    between atoms: _136  and  _138
REMARK   61  A    between atoms: _138  and  _139
REMARK   62  A    between atoms: _141  and  _143
REMARK   63  A    between atoms: _143  and  _144
REMARK   64  A    between atoms: _143  and  _146
REMARK   65  A    between atoms: _146  and  _147
REMARK   66  A    between atoms: _150  and  _152
REMARK   67  A    between atoms: _152  and  _153
REMARK   68  A    between atoms: _155  and  _157
REMARK   69  A    between atoms: _157  and  _158
REMARK   70  A    between atoms: _160  and  _162
REMARK   71  A    between atoms: _162  and  _163
REMARK   72  A    between atoms: _162  and  _165
REMARK   73  A    between atoms: _165  and  _166
REMARK   74  A    between atoms: _172  and  _174
REMARK   75  A    between atoms: _174  and  _175
REMARK   76  A    between atoms: _174  and  _177
REMARK   77  A    between atoms: _177  and  _178
REMARK   78  A    between atoms: _181  and  _183
REMARK   79  A    between atoms: _183  and  _184
REMARK   80  A    between atoms: _183  and  _186
REMARK   81  A    between atoms: _189  and  _191
REMARK   82  A    between atoms: _191  and  _192
REMARK   83  A    between atoms: _191  and  _194
REMARK   84  A    between atoms: _194  and  _195
REMARK   85  A    between atoms: _199  and  _200
REMARK   86  A    between atoms: _205  and  _207
REMARK   87  A    between atoms: _207  and  _208
REMARK   88  A    between atoms: _207  and  _210
REMARK   89  A    between atoms: _210  and  _211
REMARK   90  A    between atoms: _215  and  _216
REMARK   91  A    between atoms: _221  and  _223
REMARK   92  A    between atoms: _223  and  _224
REMARK   93  A    between atoms: _223  and  _226
REMARK   94  A    between atoms: _229  and  _231
REMARK   95  A    between atoms: _231  and  _232
REMARK   96  A    between atoms: _231  and  _234
REMARK   97  A    between atoms: _234  and  _235
REMARK   98  A    between atoms: _240  and  _242
REMARK   99  A    between atoms: _242  and  _243
REMARK  100  A    between atoms: _242  and  _245
REMARK  101  A    between atoms: _245  and  _246
REMARK  102  A    between atoms: _249  and  _251
REMARK  103  A    between atoms: _251  and  _252
REMARK  104  A    between atoms: _251  and  _254
REMARK  105  A    between atoms: _254  and  _255
REMARK  106  A    between atoms: _258  and  _260
REMARK  107  A    between atoms: _260  and  _261
REMARK  108  A    between atoms: _263  and  _265
REMARK  109  A    between atoms: _265  and  _266
REMARK  110  A    between atoms: _265  and  _268
REMARK  111  A    between atoms: _268  and  _269
REMARK  112  A    between atoms: _269  and  _270
REMARK  113  A    between atoms: _270  and  _271
REMARK  114  A    between atoms: _280  and  _282
REMARK  115  A    between atoms: _282  and  _283
REMARK  116  A    between atoms: _282  and  _285
REMARK  117  A    between atoms: _285  and  _286
REMARK  118  A    between atoms: _291  and  _293
REMARK  119  A    between atoms: _293  and  _294
REMARK  120  A    between atoms: _293  and  _296
REMARK  121  A    between atoms: _296  and  _297
REMARK  122  A    between atoms: _297  and  _298
REMARK  123  A    between atoms: _298  and  _299
REMARK  124  A    between atoms: _308  and  _310
REMARK  125  A    between atoms: _310  and  _311
REMARK  126  A    between atoms: _310  and  _313
REMARK  127  A    between atoms: _313  and  _314
REMARK  128  A    between atoms: _317  and  _319
REMARK  129  A    between atoms: _319  and  _320
REMARK  130  A    between atoms: _319  and  _322
REMARK  131  A    between atoms: _322  and  _323
REMARK  132  A    between atoms: _326  and  _328
REMARK  133  A    between atoms: _328  and  _329
REMARK  134  A    between atoms: _328  and  _331
REMARK  135  A    between atoms: _331  and  _332
REMARK  136  A    between atoms: _335  and  _337
REMARK  137  A    between atoms: _337  and  _338
REMARK  138  A    between atoms: _337  and  _340
REMARK  139  A    between atoms: _340  and  _341
REMARK  140  A    between atoms: _344  and  _346
REMARK  141  A    between atoms: _346  and  _347
REMARK  142  A    between atoms: _349  and  _351
REMARK  143  A    between atoms: _351  and  _352
REMARK  144  A    between atoms: _355  and  _357
REMARK  145  A    between atoms: _357  and  _358
REMARK  146  A    between atoms: _357  and  _360
REMARK  147  A    between atoms: _360  and  _361
REMARK  148  A    between atoms: _364  and  _366
REMARK  149  A    between atoms: _366  and  _367
REMARK  150  A    between atoms: _366  and  _369
REMARK  151  A    between atoms: _369  and  _370
REMARK  152  A    between atoms: _373  and  _375
REMARK  153  A    between atoms: _375  and  _376
REMARK  154  A    between atoms: _375  and  _378
REMARK  155  A    between atoms: _378  and  _379
REMARK  156  A    between atoms: _382  and  _384
REMARK  157  A    between atoms: _384  and  _385
REMARK  158  A    between atoms: _384  and  _387
REMARK  159  A    between atoms: _390  and  _392
REMARK  160  A    between atoms: _392  and  _393
REMARK  161  A    between atoms: _392  and  _395
REMARK  162  A    between atoms: _395  and  _396
REMARK  163  A    between atoms: _396  and  _397
REMARK  164  A    between atoms: _397  and  _398
REMARK  165  A    between atoms: _398  and  _399
REMARK  166  A    between atoms: _403  and  _405
REMARK  167  A    between atoms: _405  and  _406
REMARK  168  A    between atoms: _405  and  _408
REMARK  169  A    between atoms: _408  and  _409
REMARK  170  A    between atoms: _409  and  _410
REMARK  171  A    between atoms: _412  and  _414
REMARK  172  A    between atoms: _414  and  _415
REMARK  173  A    between atoms: _414  and  _417
REMARK  174  A    between atoms: _417  and  _418
REMARK  175  A    between atoms: _421  and  _423
REMARK  176  A    between atoms: _423  and  _424
REMARK  177  A    between atoms: _426  and  _428
REMARK  178  A    between atoms: _428  and  _429
REMARK  179  A    between atoms: _431  and  _433
REMARK  180  A    between atoms: _433  and  _434
REMARK  181  A    between atoms: _433  and  _436
REMARK  182  A    between atoms: _436  and  _437
REMARK  183  A    between atoms: _440  and  _442
REMARK  184  A    between atoms: _442  and  _443
REMARK  185  A    between atoms: _445  and  _447
REMARK  186  A    between atoms: _447  and  _448
REMARK  187  A    between atoms: _450  and  _452
REMARK  188  A    between atoms: _452  and  _453
REMARK  189  A    between atoms: _452  and  _455
REMARK  190  A    between atoms: _455  and  _456
REMARK  191  A    between atoms: _462  and  _464
REMARK  192  A    between atoms: _464  and  _465
REMARK  193  A    between atoms: _464  and  _467
REMARK  194  A    between atoms: _467  and  _468
REMARK  195  A    between atoms: _471  and  _473
REMARK  196  A    between atoms: _473  and  _474
REMARK  197  A    between atoms: _473  and  _476
REMARK  198  A    between atoms: _476  and  _477
REMARK  199  A    between atoms: _480  and  _482
REMARK  200  A    between atoms: _482  and  _483
REMARK  201  A    between atoms: _482  and  _485
REMARK  202  A    between atoms: _485  and  _486
REMARK  203  A    between atoms: _490  and  _491
REMARK  204  A    between atoms: _496  and  _498
REMARK  205  A    between atoms: _498  and  _499
REMARK  206  A    between atoms: _498  and  _501
REMARK  207  A    between atoms: _504  and  _506
REMARK  208  A    between atoms: _506  and  _507
REMARK  209  A    between atoms: _506  and  _509
REMARK  210  A    between atoms: _509  and  _510
REMARK  211  A    between atoms: _515  and  _517
REMARK  212  A    between atoms: _517  and  _518
REMARK  213  A    between atoms: _517  and  _520
REMARK  214  A    between atoms: _520  and  _521
REMARK  215  A    between atoms: _524  and  _526
REMARK  216  A    between atoms: _526  and  _527
REMARK  217  A    between atoms: _529  and  _531
REMARK  218  A    between atoms: _531  and  _532
REMARK  219  A    between atoms: _531  and  _534
REMARK  220  A    between atoms: _534  and  _535
REMARK  221  A    between atoms: _535  and  _536
REMARK  222  A    between atoms: _536  and  _537
REMARK  223  A    between atoms: _546  and  _548
REMARK  224  A    between atoms: _548  and  _549
REMARK  225  A    between atoms: _548  and  _551
REMARK  226  A    between atoms: _551  and  _552
REMARK                            x       y       z     vdW  Elec       q    Type
REMARK                         _______ _______ _______ _____ _____    ______ ____
ROOT
ATOM      1  O   HOH     1      15.845  15.849  11.501  0.00  0.00    +0.000 OA
ENDROOT
TORSDOF 0
REMARK  Name = ../refined-set-2016/5bry/5bry_pocket.pdb
REMARK  226 active torsions:
REMARK  status: ('A' for Active; 'I' for Inactive)
REMARK    1  A    between atoms: _1  and  _3
REMARK    2  A    between atoms: _3  and  _4
REMARK    3  A    between atoms: _3  and  _6
REMARK    4  A    between atoms: _6  and  _7
REMARK    5  A    between atoms: _7  and  _8
REMARK    6  A    between atoms: _8  and  _9
REMARK    7  A    between atoms: _18  and  _20
REMARK    8  A    between atoms: _20  and  _21
REMARK    9  A    between atoms: _20  and  _23
REMARK   10  A    between atoms: _23  and  _24
REMARK   11  A    between atoms: _27  and  _29
REMARK   12  A    between atoms: _29  and  _30
REMARK   13  A    between atoms: _29  and  _32
REMARK   14  A    between atoms: _32  and  _33
REMARK   15  A    between atoms: _36  and  _38
REMARK   16  A    between atoms: _38  and  _39
REMARK   17  A    between atoms: _38  and  _41
REMARK   18  A    between atoms: _41  and  _42
REMARK   19  A    between atoms: _45  and  _47
REMARK   20  A    between atoms: _47  and  _48
REMARK   21  A    between atoms: _47  and  _50
REMARK   22  A    between atoms: _50  and  _51
REMARK   23  A    between atoms: _54  and  _56
REMARK   24  A    between atoms: _56  and  _57
REMARK   25  A    between atoms: _59  and  _61
REMARK   26  A    between atoms: _61  and  _62
REMARK   27  A    between atoms: _65  and  _67
REMARK   28  A    between atoms: _67  and  _68
REMARK   29  A    between atoms: _67  and  _70
REMARK   30  A    between atoms: _70  and  _71
REMARK   31  A    between atoms: _74  and  _76
REMARK   32  A    between atoms: _76  and  _77
REMARK   33  A    between atoms: _76  and  _79
REMARK   34  A    between atoms: _79  and  _80
REMARK   35  A    between atoms: _83  and  _85
REMARK   36  A    between atoms: _85  and  _86
REMARK   37  A    between atoms: _85  and  _88
REMARK   38  A    between atoms: _88  and  _89
REMARK   39  A    between atoms: _92  and  _94
REMARK   40  A    between atoms: _94  and  _95
REMARK   41  A    between atoms: _94  and  _97
REMARK   42  A    between atoms: _100  and  _102
REMARK   43  A    between atoms: _102  and  _103
REMARK   44  A    between atoms: _102  and  _105
REMARK   45  A    between atoms: _105  and  _106
REMARK   46  A    between atoms: _106  and  _107
REMARK   47  A    between atoms: _107  and  _108
REMARK   48  A    between atoms: _108  and  _109
REMARK   49  A    between atoms: _113  and  _115
REMARK   50  A    between atoms: _115  and  _116
REMARK   51  A    between atoms: _115  and  _118
REMARK   52  A    between atoms: _118  and  _119
REMARK   53  A    between atoms: _119  and  _120
REMARK   54  A    between atoms: _122  and  _124
REMARK   55  A    between atoms: _124  and  _125
REMARK   56  A    between atoms: _124  and  _127
REMARK   57  A    between atoms: _127  and  _128
REMARK   58  A    between atoms: _131  and  _133
REMARK   59  A    between atoms: _133  and  _134
REMARK   60  A    between atoms: _136  and  _138
REMARK   61  A    between atoms: _138  and  _139
REMARK   62  A    between atoms: _141  and  _143
REMARK   63  A    between atoms: _143  and  _144
REMARK   64  A    between atoms: _143  and  _146
REMARK   65  A    between atoms: _146  and  _147
REMARK   66  A    between atoms: _150  and  _152
REMARK   67  A    between atoms: _152  and  _153
REMARK   68  A    between atoms: _155  and  _157
REMARK   69  A    between atoms: _157  and  _158
REMARK   70  A    between atoms: _160  and  _162
REMARK   71  A    between atoms: _162  and  _163
REMARK   72  A    between atoms: _162  and  _165
REMARK   73  A    between atoms: _165  and  _166
REMARK   74  A    between atoms: _172  and  _174
REMARK   75  A    between atoms: _174  and  _175
REMARK   76  A    between atoms: _174  and  _177
REMARK   77  A    between atoms: _177  and  _178
REMARK   78  A    between atoms: _181  and  _183
REMARK   79  A    between atoms: _183  and  _184
REMARK   80  A    between atoms: _183  and  _186
REMARK   81  A    between atoms: _189  and  _191
REMARK   82  A    between atoms: _191  and  _192
REMARK   83  A    between atoms: _191  and  _194
REMARK   84  A    between atoms: _194  and  _195
REMARK   85  A    between atoms: _199  and  _200
REMARK   86  A    between atoms: _205  and  _207
REMARK   87  A    between atoms: _207  and  _208
REMARK   88  A    between atoms: _207  and  _210
REMARK   89  A    between atoms: _210  and  _211
REMARK   90  A    between atoms: _215  and  _216
REMARK   91  A    between atoms: _221  and  _223
REMARK   92  A    between atoms: _223  and  _224
REMARK   93  A    between atoms: _223  and  _226
REMARK   94  A    between atoms: _229  and  _231
REMARK   95  A    between atoms: _231  and  _232
REMARK   96  A    between atoms: _231  and  _234
REMARK   97  A    between atoms: _234  and  _235
REMARK   98  A    between atoms: _240  and  _242
REMARK   99  A    between atoms: _242  and  _243
REMARK  100  A    between atoms: _242  and  _245
REMARK  101  A    between atoms: _245  and  _246
REMARK  102  A    between atoms: _249  and  _251
REMARK  103  A    between atoms: _251  and  _252
REMARK  104  A    between atoms: _251  and  _254
REMARK  105  A    between atoms: _254  and  _255
REMARK  106  A    between atoms: _258  and  _260
REMARK  107  A    between atoms: _260  and  _261
REMARK  108  A    between atoms: _263  and  _265
REMARK  109  A    between atoms: _265  and  _266
REMARK  110  A    between atoms: _265  and  _268
REMARK  111  A    between atoms: _268  and  _269
REMARK  112  A    between atoms: _269  and  _270
REMARK  113  A    between atoms: _270  and  _271
REMARK  114  A    between atoms: _280  and  _282
REMARK  115  A    between atoms: _282  and  _283
REMARK  116  A    between atoms: _282  and  _285
REMARK  117  A    between atoms: _285  and  _286
REMARK  118  A    between atoms: _291  and  _293
REMARK  119  A    between atoms: _293  and  _294
REMARK  120  A    between atoms: _293  and  _296
REMARK  121  A    between atoms: _296  and  _297
REMARK  122  A    between atoms: _297  and  _298
REMARK  123  A    between atoms: _298  and  _299
REMARK  124  A    between atoms: _308  and  _310
REMARK  125  A    between atoms: _310  and  _311
REMARK  126  A    between atoms: _310  and  _313
REMARK  127  A    between atoms: _313  and  _314
REMARK  128  A    between atoms: _317  and  _319
REMARK  129  A    between atoms: _319  and  _320
REMARK  130  A    between atoms: _319  and  _322
REMARK  131  A    between atoms: _322  and  _323
REMARK  132  A    between atoms: _326  and  _328
REMARK  133  A    between atoms: _328  and  _329
REMARK  134  A    between atoms: _328  and  _331
REMARK  135  A    between atoms: _331  and  _332
REMARK  136  A    between atoms: _335  and  _337
REMARK  137  A    between atoms: _337  and  _338
REMARK  138  A    between atoms: _337  and  _340
REMARK  139  A    between atoms: _340  and  _341
REMARK  140  A    between atoms: _344  and  _346
REMARK  141  A    between atoms: _346  and  _347
REMARK  142  A    between atoms: _349  and  _351
REMARK  143  A    between atoms: _351  and  _352
REMARK  144  A    between atoms: _355  and  _357
REMARK  145  A    between atoms: _357  and  _358
REMARK  146  A    between atoms: _357  and  _360
REMARK  147  A    between atoms: _360  and  _361
REMARK  148  A    between atoms: _364  and  _366
REMARK  149  A    between atoms: _366  and  _367
REMARK  150  A    between atoms: _366  and  _369
REMARK  151  A    between atoms: _369  and  _370
REMARK  152  A    between atoms: _373  and  _375
REMARK  153  A    between atoms: _375  and  _376
REMARK  154  A    between atoms: _375  and  _378
REMARK  155  A    between atoms: _378  and  _379
REMARK  156  A    between atoms: _382  and  _384
REMARK  157  A    between atoms: _384  and  _385
REMARK  158  A    between atoms: _384  and  _387
REMARK  159  A    between atoms: _390  and  _392
REMARK  160  A    between atoms: _392  and  _393
REMARK  161  A    between atoms: _392  and  _395
REMARK  162  A    between atoms: _395  and  _396
REMARK  163  A    between atoms: _396  and  _397
REMARK  164  A    between atoms: _397  and  _398
REMARK  165  A    between atoms: _398  and  _399
REMARK  166  A    between atoms: _403  and  _405
REMARK  167  A    between atoms: _405  and  _406
REMARK  168  A    between atoms: _405  and  _408
REMARK  169  A    between atoms: _408  and  _409
REMARK  170  A    between atoms: _409  and  _410
REMARK  171  A    between atoms: _412  and  _414
REMARK  172  A    between atoms: _414  and  _415
REMARK  173  A    between atoms: _414  and  _417
REMARK  174  A    between atoms: _417  and  _418
REMARK  175  A    between atoms: _421  and  _423
REMARK  176  A    between atoms: _423  and  _424
REMARK  177  A    between atoms: _426  and  _428
REMARK  178  A    between atoms: _428  and  _429
REMARK  179  A    between atoms: _431  and  _433
REMARK  180  A    between atoms: _433  and  _434
REMARK  181  A    between atoms: _433  and  _436
REMARK  182  A    between atoms: _436  and  _437
REMARK  183  A    between atoms: _440  and  _442
REMARK  184  A    between atoms: _442  and  _443
REMARK  185  A    between atoms: _445  and  _447
REMARK  186  A    between atoms: _447  and  _448
REMARK  187  A    between atoms: _450  and  _452
REMARK  188  A    between atoms: _452  and  _453
REMARK  189  A    between atoms: _452  and  _455
REMARK  190  A    between atoms: _455  and  _456
REMARK  191  A    between atoms: _462  and  _464
REMARK  192  A    between atoms: _464  and  _465
REMARK  193  A    between atoms: _464  and  _467
REMARK  194  A    between atoms: _467  and  _468
REMARK  195  A    between atoms: _471  and  _473
REMARK  196  A    between atoms: _473  and  _474
REMARK  197  A    between atoms: _473  and  _476
REMARK  198  A    between atoms: _476  and  _477
REMARK  199  A    between atoms: _480  and  _482
REMARK  200  A    between atoms: _482  and  _483
REMARK  201  A    between atoms: _482  and  _485
REMARK  202  A    between atoms: _485  and  _486
REMARK  203  A    between atoms: _490  and  _491
REMARK  204  A    between atoms: _496  and  _498
REMARK  205  A    between atoms: _498  and  _499
REMARK  206  A    between atoms: _498  and  _501
REMARK  207  A    between atoms: _504  and  _506
REMARK  208  A    between atoms: _506  and  _507
REMARK  209  A    between atoms: _506  and  _509
REMARK  210  A    between atoms: _509  and  _510
REMARK  211  A    between atoms: _515  and  _517
REMARK  212  A    between atoms: _517  and  _518
REMARK  213  A    between atoms: _517  and  _520
REMARK  214  A    between atoms: _520  and  _521
REMARK  215  A    between atoms: _524  and  _526
REMARK  216  A    between atoms: _526  and  _527
REMARK  217  A    between atoms: _529  and  _531
REMARK  218  A    between atoms: _531  and  _532
REMARK  219  A    between atoms: _531  and  _534
REMARK  220  A    between atoms: _534  and  _535
REMARK  221  A    between atoms: _535  and  _536
REMARK  222  A    between atoms: _536  and  _537
REMARK  223  A    between atoms: _546  and  _548
REMARK  224  A    between atoms: _548  and  _549
REMARK  225  A    between atoms: _548  and  _551
REMARK  226  A    between atoms: _551  and  _552
REMARK                            x       y       z     vdW  Elec       q    Type
REMARK                         _______ _______ _______ _____ _____    ______ ____
ROOT
ATOM      1  O   HOH     1       8.764  22.282  16.393  0.00  0.00    +0.000 OA
ENDROOT
TORSDOF 0
REMARK  Name = ../refined-set-2016/5bry/5bry_pocket.pdb
REMARK  226 active torsions:
REMARK  status: ('A' for Active; 'I' for Inactive)
REMARK    1  A    between atoms: _1  and  _3
REMARK    2  A    between atoms: _3  and  _4
REMARK    3  A    between atoms: _3  and  _6
REMARK    4  A    between atoms: _6  and  _7
REMARK    5  A    between atoms: _7  and  _8
REMARK    6  A    between atoms: _8  and  _9
REMARK    7  A    between atoms: _18  and  _20
REMARK    8  A    between atoms: _20  and  _21
REMARK    9  A    between atoms: _20  and  _23
REMARK   10  A    between atoms: _23  and  _24
REMARK   11  A    between atoms: _27  and  _29
REMARK   12  A    between atoms: _29  and  _30
REMARK   13  A    between atoms: _29  and  _32
REMARK   14  A    between atoms: _32  and  _33
REMARK   15  A    between atoms: _36  and  _38
REMARK   16  A    between atoms: _38  and  _39
REMARK   17  A    between atoms: _38  and  _41
REMARK   18  A    between atoms: _41  and  _42
REMARK   19  A    between atoms: _45  and  _47
REMARK   20  A    between atoms: _47  and  _48
REMARK   21  A    between atoms: _47  and  _50
REMARK   22  A    between atoms: _50  and  _51
REMARK   23  A    between atoms: _54  and  _56
REMARK   24  A    between atoms: _56  and  _57
REMARK   25  A    between atoms: _59  and  _61
REMARK   26  A    between atoms: _61  and  _62
REMARK   27  A    between atoms: _65  and  _67
REMARK   28  A    between atoms: _67  and  _68
REMARK   29  A    between atoms: _67  and  _70
REMARK   30  A    between atoms: _70  and  _71
REMARK   31  A    between atoms: _74  and  _76
REMARK   32  A    between atoms: _76  and  _77
REMARK   33  A    between atoms: _76  and  _79
REMARK   34  A    between atoms: _79  and  _80
REMARK   35  A    between atoms: _83  and  _85
REMARK   36  A    between atoms: _85  and  _86
REMARK   37  A    between atoms: _85  and  _88
REMARK   38  A    between atoms: _88  and  _89
REMARK   39  A    between atoms: _92  and  _94
REMARK   40  A    between atoms: _94  and  _95
REMARK   41  A    between atoms: _94  and  _97
REMARK   42  A    between atoms: _100  and  _102
REMARK   43  A    between atoms: _102  and  _103
REMARK   44  A    between atoms: _102  and  _105
REMARK   45  A    between atoms: _105  and  _106
REMARK   46  A    between atoms: _106  and  _107
REMARK   47  A    between atoms: _107  and  _108
REMARK   48  A    between atoms: _108  and  _109
REMARK   49  A    between atoms: _113  and  _115
REMARK   50  A    between atoms: _115  and  _116
REMARK   51  A    between atoms: _115  and  _118
REMARK   52  A    between atoms: _118  and  _119
REMARK   53  A    between atoms: _119  and  _120
REMARK   54  A    between atoms: _122  and  _124
REMARK   55  A    between atoms: _124  and  _125
REMARK   56  A    between atoms: _124  and  _127
REMARK   57  A    between atoms: _127  and  _128
REMARK   58  A    between atoms: _131  and  _133
REMARK   59  A    between atoms: _133  and  _134
REMARK   60  A    between atoms: _136  and  _138
REMARK   61  A    between atoms: _138  and  _139
REMARK   62  A    between atoms: _141  and  _143
REMARK   63  A    between atoms: _143  and  _144
REMARK   64  A    between atoms: _143  and  _146
REMARK   65  A    between atoms: _146  and  _147
REMARK   66  A    between atoms: _150  and  _152
REMARK   67  A    between atoms: _152  and  _153
REMARK   68  A    between atoms: _155  and  _157
REMARK   69  A    between atoms: _157  and  _158
REMARK   70  A    between atoms: _160  and  _162
REMARK   71  A    between atoms: _162  and  _163
REMARK   72  A    between atoms: _162  and  _165
REMARK   73  A    between atoms: _165  and  _166
REMARK   74  A    between atoms: _172  and  _174
REMARK   75  A    between atoms: _174  and  _175
REMARK   76  A    between atoms: _174  and  _177
REMARK   77  A    between atoms: _177  and  _178
REMARK   78  A    between atoms: _181  and  _183
REMARK   79  A    between atoms: _183  and  _184
REMARK   80  A    between atoms: _183  and  _186
REMARK   81  A    between atoms: _189  and  _191
REMARK   82  A    between atoms: _191  and  _192
REMARK   83  A    between atoms: _191  and  _194
REMARK   84  A    between atoms: _194  and  _195
REMARK   85  A    between atoms: _199  and  _200
REMARK   86  A    between atoms: _205  and  _207
REMARK   87  A    between atoms: _207  and  _208
REMARK   88  A    between atoms: _207  and  _210
REMARK   89  A    between atoms: _210  and  _211
REMARK   90  A    between atoms: _215  and  _216
REMARK   91  A    between atoms: _221  and  _223
REMARK   92  A    between atoms: _223  and  _224
REMARK   93  A    between atoms: _223  and  _226
REMARK   94  A    between atoms: _229  and  _231
REMARK   95  A    between atoms: _231  and  _232
REMARK   96  A    between atoms: _231  and  _234
REMARK   97  A    between atoms: _234  and  _235
REMARK   98  A    between atoms: _240  and  _242
REMARK   99  A    between atoms: _242  and  _243
REMARK  100  A    between atoms: _242  and  _245
REMARK  101  A    between atoms: _245  and  _246
REMARK  102  A    between atoms: _249  and  _251
REMARK  103  A    between atoms: _251  and  _252
REMARK  104  A    between atoms: _251  and  _254
REMARK  105  A    between atoms: _254  and  _255
REMARK  106  A    between atoms: _258  and  _260
REMARK  107  A    between atoms: _260  and  _261
REMARK  108  A    between atoms: _263  and  _265
REMARK  109  A    between atoms: _265  and  _266
REMARK  110  A    between atoms: _265  and  _268
REMARK  111  A    between atoms: _268  and  _269
REMARK  112  A    between atoms: _269  and  _270
REMARK  113  A    between atoms: _270  and  _271
REMARK  114  A    between atoms: _280  and  _282
REMARK  115  A    between atoms: _282  and  _283
REMARK  116  A    between atoms: _282  and  _285
REMARK  117  A    between atoms: _285  and  _286
REMARK  118  A    between atoms: _291  and  _293
REMARK  119  A    between atoms: _293  and  _294
REMARK  120  A    between atoms: _293  and  _296
REMARK  121  A    between atoms: _296  and  _297
REMARK  122  A    between atoms: _297  and  _298
REMARK  123  A    between atoms: _298  and  _299
REMARK  124  A    between atoms: _308  and  _310
REMARK  125  A    between atoms: _310  and  _311
REMARK  126  A    between atoms: _310  and  _313
REMARK  127  A    between atoms: _313  and  _314
REMARK  128  A    between atoms: _317  and  _319
REMARK  129  A    between atoms: _319  and  _320
REMARK  130  A    between atoms: _319  and  _322
REMARK  131  A    between atoms: _322  and  _323
REMARK  132  A    between atoms: _326  and  _328
REMARK  133  A    between atoms: _328  and  _329
REMARK  134  A    between atoms: _328  and  _331
REMARK  135  A    between atoms: _331  and  _332
REMARK  136  A    between atoms: _335  and  _337
REMARK  137  A    between atoms: _337  and  _338
REMARK  138  A    between atoms: _337  and  _340
REMARK  139  A    between atoms: _340  and  _341
REMARK  140  A    between atoms: _344  and  _346
REMARK  141  A    between atoms: _346  and  _347
REMARK  142  A    between atoms: _349  and  _351
REMARK  143  A    between atoms: _351  and  _352
REMARK  144  A    between atoms: _355  and  _357
REMARK  145  A    between atoms: _357  and  _358
REMARK  146  A    between atoms: _357  and  _360
REMARK  147  A    between atoms: _360  and  _361
REMARK  148  A    between atoms: _364  and  _366
REMARK  149  A    between atoms: _366  and  _367
REMARK  150  A    between atoms: _366  and  _369
REMARK  151  A    between atoms: _369  and  _370
REMARK  152  A    between atoms: _373  and  _375
REMARK  153  A    between atoms: _375  and  _376
REMARK  154  A    between atoms: _375  and  _378
REMARK  155  A    between atoms: _378  and  _379
REMARK  156  A    between atoms: _382  and  _384
REMARK  157  A    between atoms: _384  and  _385
REMARK  158  A    between atoms: _384  and  _387
REMARK  159  A    between atoms: _390  and  _392
REMARK  160  A    between atoms: _392  and  _393
REMARK  161  A    between atoms: _392  and  _395
REMARK  162  A    between atoms: _395  and  _396
REMARK  163  A    between atoms: _396  and  _397
REMARK  164  A    between atoms: _397  and  _398
REMARK  165  A    between atoms: _398  and  _399
REMARK  166  A    between atoms: _403  and  _405
REMARK  167  A    between atoms: _405  and  _406
REMARK  168  A    between atoms: _405  and  _408
REMARK  169  A    between atoms: _408  and  _409
REMARK  170  A    between atoms: _409  and  _410
REMARK  171  A    between atoms: _412  and  _414
REMARK  172  A    between atoms: _414  and  _415
REMARK  173  A    between atoms: _414  and  _417
REMARK  174  A    between atoms: _417  and  _418
REMARK  175  A    between atoms: _421  and  _423
REMARK  176  A    between atoms: _423  and  _424
REMARK  177  A    between atoms: _426  and  _428
REMARK  178  A    between atoms: _428  and  _429
REMARK  179  A    between atoms: _431  and  _433
REMARK  180  A    between atoms: _433  and  _434
REMARK  181  A    between atoms: _433  and  _436
REMARK  182  A    between atoms: _436  and  _437
REMARK  183  A    between atoms: _440  and  _442
REMARK  184  A    between atoms: _442  and  _443
REMARK  185  A    between atoms: _445  and  _447
REMARK  186  A    between atoms: _447  and  _448
REMARK  187  A    between atoms: _450  and  _452
REMARK  188  A    between atoms: _452  and  _453
REMARK  189  A    between atoms: _452  and  _455
REMARK  190  A    between atoms: _455  and  _456
REMARK  191  A    between atoms: _462  and  _464
REMARK  192  A    between atoms: _464  and  _465
REMARK  193  A    between atoms: _464  and  _467
REMARK  194  A    between atoms: _467  and  _468
REMARK  195  A    between atoms: _471  and  _473
REMARK  196  A    between atoms: _473  and  _474
REMARK  197  A    between atoms: _473  and  _476
REMARK  198  A    between atoms: _476  and  _477
REMARK  199  A    between atoms: _480  and  _482
REMARK  200  A    between atoms: _482  and  _483
REMARK  201  A    between atoms: _482  and  _485
REMARK  202  A    between atoms: _485  and  _486
REMARK  203  A    between atoms: _490  and  _491
REMARK  204  A    between atoms: _496  and  _498
REMARK  205  A    between atoms: _498  and  _499
REMARK  206  A    between atoms: _498  and  _501
REMARK  207  A    between atoms: _504  and  _506
REMARK  208  A    between atoms: _506  and  _507
REMARK  209  A    between atoms: _506  and  _509
REMARK  210  A    between atoms: _509  and  _510
REMARK  211  A    between atoms: _515  and  _517
REMARK  212  A    between atoms: _517  and  _518
REMARK  213  A    between atoms: _517  and  _520
REMARK  214  A    between atoms: _520  and  _521
REMARK  215  A    between atoms: _524  and  _526
REMARK  216  A    between atoms: _526  and  _527
REMARK  217  A    between atoms: _529  and  _531
REMARK  218  A    between atoms: _531  and  _532
REMARK  219  A    between atoms: _531  and  _534
REMARK  220  A    between atoms: _534  and  _535
REMARK  221  A    between atoms: _535  and  _536
REMARK  222  A    between atoms: _536  and  _537
REMARK  223  A    between atoms: _546  and  _548
REMARK  224  A    between atoms: _548  and  _549
REMARK  225  A    between atoms: _548  and  _551
REMARK  226  A    between atoms: _551  and  _552
REMARK                            x       y       z     vdW  Elec       q    Type
REMARK                         _______ _______ _______ _____ _____    ______ ____
ROOT
ATOM      1  O   HOH     1       6.641  15.750  18.360  0.00  0.00    +0.000 OA
ENDROOT
TORSDOF 0
REMARK  Name = ../refined-set-2016/5bry/5bry_pocket.pdb
REMARK  226 active torsions:
REMARK  status: ('A' for Active; 'I' for Inactive)
REMARK    1  A    between atoms: _1  and  _3
REMARK    2  A    between atoms: _3  and  _4
REMARK    3  A    between atoms: _3  and  _6
REMARK    4  A    between atoms: _6  and  _7
REMARK    5  A    between atoms: _7  and  _8
REMARK    6  A    between atoms: _8  and  _9
REMARK    7  A    between atoms: _18  and  _20
REMARK    8  A    between atoms: _20  and  _21
REMARK    9  A    between atoms: _20  and  _23
REMARK   10  A    between atoms: _23  and  _24
REMARK   11  A    between atoms: _27  and  _29
REMARK   12  A    between atoms: _29  and  _30
REMARK   13  A    between atoms: _29  and  _32
REMARK   14  A    between atoms: _32  and  _33
REMARK   15  A    between atoms: _36  and  _38
REMARK   16  A    between atoms: _38  and  _39
REMARK   17  A    between atoms: _38  and  _41
REMARK   18  A    between atoms: _41  and  _42
REMARK   19  A    between atoms: _45  and  _47
REMARK   20  A    between atoms: _47  and  _48
REMARK   21  A    between atoms: _47  and  _50
REMARK   22  A    between atoms: _50  and  _51
REMARK   23  A    between atoms: _54  and  _56
REMARK   24  A    between atoms: _56  and  _57
REMARK   25  A    between atoms: _59  and  _61
REMARK   26  A    between atoms: _61  and  _62
REMARK   27  A    between atoms: _65  and  _67
REMARK   28  A    between atoms: _67  and  _68
REMARK   29  A    between atoms: _67  and  _70
REMARK   30  A    between atoms: _70  and  _71
REMARK   31  A    between atoms: _74  and  _76
REMARK   32  A    between atoms: _76  and  _77
REMARK   33  A    between atoms: _76  and  _79
REMARK   34  A    between atoms: _79  and  _80
REMARK   35  A    between atoms: _83  and  _85
REMARK   36  A    between atoms: _85  and  _86
REMARK   37  A    between atoms: _85  and  _88
REMARK   38  A    between atoms: _88  and  _89
REMARK   39  A    between atoms: _92  and  _94
REMARK   40  A    between atoms: _94  and  _95
REMARK   41  A    between atoms: _94  and  _97
REMARK   42  A    between atoms: _100  and  _102
REMARK   43  A    between atoms: _102  and  _103
REMARK   44  A    between atoms: _102  and  _105
REMARK   45  A    between atoms: _105  and  _106
REMARK   46  A    between atoms: _106  and  _107
REMARK   47  A    between atoms: _107  and  _108
REMARK   48  A    between atoms: _108  and  _109
REMARK   49  A    between atoms: _113  and  _115
REMARK   50  A    between atoms: _115  and  _116
REMARK   51  A    between atoms: _115  and  _118
REMARK   52  A    between atoms: _118  and  _119
REMARK   53  A    between atoms: _119  and  _120
REMARK   54  A    between atoms: _122  and  _124
REMARK   55  A    between atoms: _124  and  _125
REMARK   56  A    between atoms: _124  and  _127
REMARK   57  A    between atoms: _127  and  _128
REMARK   58  A    between atoms: _131  and  _133
REMARK   59  A    between atoms: _133  and  _134
REMARK   60  A    between atoms: _136  and  _138
REMARK   61  A    between atoms: _138  and  _139
REMARK   62  A    between atoms: _141  and  _143
REMARK   63  A    between atoms: _143  and  _144
REMARK   64  A    between atoms: _143  and  _146
REMARK   65  A    between atoms: _146  and  _147
REMARK   66  A    between atoms: _150  and  _152
REMARK   67  A    between atoms: _152  and  _153
REMARK   68  A    between atoms: _155  and  _157
REMARK   69  A    between atoms: _157  and  _158
REMARK   70  A    between atoms: _160  and  _162
REMARK   71  A    between atoms: _162  and  _163
REMARK   72  A    between atoms: _162  and  _165
REMARK   73  A    between atoms: _165  and  _166
REMARK   74  A    between atoms: _172  and  _174
REMARK   75  A    between atoms: _174  and  _175
REMARK   76  A    between atoms: _174  and  _177
REMARK   77  A    between atoms: _177  and  _178
REMARK   78  A    between atoms: _181  and  _183
REMARK   79  A    between atoms: _183  and  _184
REMARK   80  A    between atoms: _183  and  _186
REMARK   81  A    between atoms: _189  and  _191
REMARK   82  A    between atoms: _191  and  _192
REMARK   83  A    between atoms: _191  and  _194
REMARK   84  A    between atoms: _194  and  _195
REMARK   85  A    between atoms: _199  and  _200
REMARK   86  A    between atoms: _205  and  _207
REMARK   87  A    between atoms: _207  and  _208
REMARK   88  A    between atoms: _207  and  _210
REMARK   89  A    between atoms: _210  and  _211
REMARK   90  A    between atoms: _215  and  _216
REMARK   91  A    between atoms: _221  and  _223
REMARK   92  A    between atoms: _223  and  _224
REMARK   93  A    between atoms: _223  and  _226
REMARK   94  A    between atoms: _229  and  _231
REMARK   95  A    between atoms: _231  and  _232
REMARK   96  A    between atoms: _231  and  _234
REMARK   97  A    between atoms: _234  and  _235
REMARK   98  A    between atoms: _240  and  _242
REMARK   99  A    between atoms: _242  and  _243
REMARK  100  A    between atoms: _242  and  _245
REMARK  101  A    between atoms: _245  and  _246
REMARK  102  A    between atoms: _249  and  _251
REMARK  103  A    between atoms: _251  and  _252
REMARK  104  A    between atoms: _251  and  _254
REMARK  105  A    between atoms: _254  and  _255
REMARK  106  A    between atoms: _258  and  _260
REMARK  107  A    between atoms: _260  and  _261
REMARK  108  A    between atoms: _263  and  _265
REMARK  109  A    between atoms: _265  and  _266
REMARK  110  A    between atoms: _265  and  _268
REMARK  111  A    between atoms: _268  and  _269
REMARK  112  A    between atoms: _269  and  _270
REMARK  113  A    between atoms: _270  and  _271
REMARK  114  A    between atoms: _280  and  _282
REMARK  115  A    between atoms: _282  and  _283
REMARK  116  A    between atoms: _282  and  _285
REMARK  117  A    between atoms: _285  and  _286
REMARK  118  A    between atoms: _291  and  _293
REMARK  119  A    between atoms: _293  and  _294
REMARK  120  A    between atoms: _293  and  _296
REMARK  121  A    between atoms: _296  and  _297
REMARK  122  A    between atoms: _297  and  _298
REMARK  123  A    between atoms: _298  and  _299
REMARK  124  A    between atoms: _308  and  _310
REMARK  125  A    between atoms: _310  and  _311
REMARK  126  A    between atoms: _310  and  _313
REMARK  127  A    between atoms: _313  and  _314
REMARK  128  A    between atoms: _317  and  _319
REMARK  129  A    between atoms: _319  and  _320
REMARK  130  A    between atoms: _319  and  _322
REMARK  131  A    between atoms: _322  and  _323
REMARK  132  A    between atoms: _326  and  _328
REMARK  133  A    between atoms: _328  and  _329
REMARK  134  A    between atoms: _328  and  _331
REMARK  135  A    between atoms: _331  and  _332
REMARK  136  A    between atoms: _335  and  _337
REMARK  137  A    between atoms: _337  and  _338
REMARK  138  A    between atoms: _337  and  _340
REMARK  139  A    between atoms: _340  and  _341
REMARK  140  A    between atoms: _344  and  _346
REMARK  141  A    between atoms: _346  and  _347
REMARK  142  A    between atoms: _349  and  _351
REMARK  143  A    between atoms: _351  and  _352
REMARK  144  A    between atoms: _355  and  _357
REMARK  145  A    between atoms: _357  and  _358
REMARK  146  A    between atoms: _357  and  _360
REMARK  147  A    between atoms: _360  and  _361
REMARK  148  A    between atoms: _364  and  _366
REMARK  149  A    between atoms: _366  and  _367
REMARK  150  A    between atoms: _366  and  _369
REMARK  151  A    between atoms: _369  and  _370
REMARK  152  A    between atoms: _373  and  _375
REMARK  153  A    between atoms: _375  and  _376
REMARK  154  A    between atoms: _375  and  _378
REMARK  155  A    between atoms: _378  and  _379
REMARK  156  A    between atoms: _382  and  _384
REMARK  157  A    between atoms: _384  and  _385
REMARK  158  A    between atoms: _384  and  _387
REMARK  159  A    between atoms: _390  and  _392
REMARK  160  A    between atoms: _392  and  _393
REMARK  161  A    between atoms: _392  and  _395
REMARK  162  A    between atoms: _395  and  _396
REMARK  163  A    between atoms: _396  and  _397
REMARK  164  A    between atoms: _397  and  _398
REMARK  165  A    between atoms: _398  and  _399
REMARK  166  A    between atoms: _403  and  _405
REMARK  167  A    between atoms: _405  and  _406
REMARK  168  A    between atoms: _405  and  _408
REMARK  169  A    between atoms: _408  and  _409
REMARK  170  A    between atoms: _409  and  _410
REMARK  171  A    between atoms: _412  and  _414
REMARK  172  A    between atoms: _414  and  _415
REMARK  173  A    between atoms: _414  and  _417
REMARK  174  A    between atoms: _417  and  _418
REMARK  175  A    between atoms: _421  and  _423
REMARK  176  A    between atoms: _423  and  _424
REMARK  177  A    between atoms: _426  and  _428
REMARK  178  A    between atoms: _428  and  _429
REMARK  179  A    between atoms: _431  and  _433
REMARK  180  A    between atoms: _433  and  _434
REMARK  181  A    between atoms: _433  and  _436
REMARK  182  A    between atoms: _436  and  _437
REMARK  183  A    between atoms: _440  and  _442
REMARK  184  A    between atoms: _442  and  _443
REMARK  185  A    between atoms: _445  and  _447
REMARK  186  A    between atoms: _447  and  _448
REMARK  187  A    between atoms: _450  and  _452
REMARK  188  A    between atoms: _452  and  _453
REMARK  189  A    between atoms: _452  and  _455
REMARK  190  A    between atoms: _455  and  _456
REMARK  191  A    between atoms: _462  and  _464
REMARK  192  A    between atoms: _464  and  _465
REMARK  193  A    between atoms: _464  and  _467
REMARK  194  A    between atoms: _467  and  _468
REMARK  195  A    between atoms: _471  and  _473
REMARK  196  A    between atoms: _473  and  _474
REMARK  197  A    between atoms: _473  and  _476
REMARK  198  A    between atoms: _476  and  _477
REMARK  199  A    between atoms: _480  and  _482
REMARK  200  A    between atoms: _482  and  _483
REMARK  201  A    between atoms: _482  and  _485
REMARK  202  A    between atoms: _485  and  _486
REMARK  203  A    between atoms: _490  and  _491
REMARK  204  A    between atoms: _496  and  _498
REMARK  205  A    between atoms: _498  and  _499
REMARK  206  A    between atoms: _498  and  _501
REMARK  207  A    between atoms: _504  and  _506
REMARK  208  A    between atoms: _506  and  _507
REMARK  209  A    between atoms: _506  and  _509
REMARK  210  A    between atoms: _509  and  _510
REMARK  211  A    between atoms: _515  and  _517
REMARK  212  A    between atoms: _517  and  _518
REMARK  213  A    between atoms: _517  and  _520
REMARK  214  A    between atoms: _520  and  _521
REMARK  215  A    between atoms: _524  and  _526
REMARK  216  A    between atoms: _526  and  _527
REMARK  217  A    between atoms: _529  and  _531
REMARK  218  A    between atoms: _531  and  _532
REMARK  219  A    between atoms: _531  and  _534
REMARK  220  A    between atoms: _534  and  _535
REMARK  221  A    between atoms: _535  and  _536
REMARK  222  A    between atoms: _536  and  _537
REMARK  223  A    between atoms: _546  and  _548
REMARK  224  A    between atoms: _548  and  _549
REMARK  225  A    between atoms: _548  and  _551
REMARK  226  A    between atoms: _551  and  _552
REMARK                            x       y       z     vdW  Elec       q    Type
REMARK                         _______ _______ _______ _____ _____    ______ ____
ROOT
ATOM      1  O   HOH     1       4.318  19.287  22.233  0.00  0.00    +0.000 OA
ENDROOT
TORSDOF 0
REMARK  Name = ../refined-set-2016/5bry/5bry_pocket.pdb
REMARK  226 active torsions:
REMARK  status: ('A' for Active; 'I' for Inactive)
REMARK    1  A    between atoms: _1  and  _3
REMARK    2  A    between atoms: _3  and  _4
REMARK    3  A    between atoms: _3  and  _6
REMARK    4  A    between atoms: _6  and  _7
REMARK    5  A    between atoms: _7  and  _8
REMARK    6  A    between atoms: _8  and  _9
REMARK    7  A    between atoms: _18  and  _20
REMARK    8  A    between atoms: _20  and  _21
REMARK    9  A    between atoms: _20  and  _23
REMARK   10  A    between atoms: _23  and  _24
REMARK   11  A    between atoms: _27  and  _29
REMARK   12  A    between atoms: _29  and  _30
REMARK   13  A    between atoms: _29  and  _32
REMARK   14  A    between atoms: _32  and  _33
REMARK   15  A    between atoms: _36  and  _38
REMARK   16  A    between atoms: _38  and  _39
REMARK   17  A    between atoms: _38  and  _41
REMARK   18  A    between atoms: _41  and  _42
REMARK   19  A    between atoms: _45  and  _47
REMARK   20  A    between atoms: _47  and  _48
REMARK   21  A    between atoms: _47  and  _50
REMARK   22  A    between atoms: _50  and  _51
REMARK   23  A    between atoms: _54  and  _56
REMARK   24  A    between atoms: _56  and  _57
REMARK   25  A    between atoms: _59  and  _61
REMARK   26  A    between atoms: _61  and  _62
REMARK   27  A    between atoms: _65  and  _67
REMARK   28  A    between atoms: _67  and  _68
REMARK   29  A    between atoms: _67  and  _70
REMARK   30  A    between atoms: _70  and  _71
REMARK   31  A    between atoms: _74  and  _76
REMARK   32  A    between atoms: _76  and  _77
REMARK   33  A    between atoms: _76  and  _79
REMARK   34  A    between atoms: _79  and  _80
REMARK   35  A    between atoms: _83  and  _85
REMARK   36  A    between atoms: _85  and  _86
REMARK   37  A    between atoms: _85  and  _88
REMARK   38  A    between atoms: _88  and  _89
REMARK   39  A    between atoms: _92  and  _94
REMARK   40  A    between atoms: _94  and  _95
REMARK   41  A    between atoms: _94  and  _97
REMARK   42  A    between atoms: _100  and  _102
REMARK   43  A    between atoms: _102  and  _103
REMARK   44  A    between atoms: _102  and  _105
REMARK   45  A    between atoms: _105  and  _106
REMARK   46  A    between atoms: _106  and  _107
REMARK   47  A    between atoms: _107  and  _108
REMARK   48  A    between atoms: _108  and  _109
REMARK   49  A    between atoms: _113  and  _115
REMARK   50  A    between atoms: _115  and  _116
REMARK   51  A    between atoms: _115  and  _118
REMARK   52  A    between atoms: _118  and  _119
REMARK   53  A    between atoms: _119  and  _120
REMARK   54  A    between atoms: _122  and  _124
REMARK   55  A    between atoms: _124  and  _125
REMARK   56  A    between atoms: _124  and  _127
REMARK   57  A    between atoms: _127  and  _128
REMARK   58  A    between atoms: _131  and  _133
REMARK   59  A    between atoms: _133  and  _134
REMARK   60  A    between atoms: _136  and  _138
REMARK   61  A    between atoms: _138  and  _139
REMARK   62  A    between atoms: _141  and  _143
REMARK   63  A    between atoms: _143  and  _144
REMARK   64  A    between atoms: _143  and  _146
REMARK   65  A    between atoms: _146  and  _147
REMARK   66  A    between atoms: _150  and  _152
REMARK   67  A    between atoms: _152  and  _153
REMARK   68  A    between atoms: _155  and  _157
REMARK   69  A    between atoms: _157  and  _158
REMARK   70  A    between atoms: _160  and  _162
REMARK   71  A    between atoms: _162  and  _163
REMARK   72  A    between atoms: _162  and  _165
REMARK   73  A    between atoms: _165  and  _166
REMARK   74  A    between atoms: _172  and  _174
REMARK   75  A    between atoms: _174  and  _175
REMARK   76  A    between atoms: _174  and  _177
REMARK   77  A    between atoms: _177  and  _178
REMARK   78  A    between atoms: _181  and  _183
REMARK   79  A    between atoms: _183  and  _184
REMARK   80  A    between atoms: _183  and  _186
REMARK   81  A    between atoms: _189  and  _191
REMARK   82  A    between atoms: _191  and  _192
REMARK   83  A    between atoms: _191  and  _194
REMARK   84  A    between atoms: _194  and  _195
REMARK   85  A    between atoms: _199  and  _200
REMARK   86  A    between atoms: _205  and  _207
REMARK   87  A    between atoms: _207  and  _208
REMARK   88  A    between atoms: _207  and  _210
REMARK   89  A    between atoms: _210  and  _211
REMARK   90  A    between atoms: _215  and  _216
REMARK   91  A    between atoms: _221  and  _223
REMARK   92  A    between atoms: _223  and  _224
REMARK   93  A    between atoms: _223  and  _226
REMARK   94  A    between atoms: _229  and  _231
REMARK   95  A    between atoms: _231  and  _232
REMARK   96  A    between atoms: _231  and  _234
REMARK   97  A    between atoms: _234  and  _235
REMARK   98  A    between atoms: _240  and  _242
REMARK   99  A    between atoms: _242  and  _243
REMARK  100  A    between atoms: _242  and  _245
REMARK  101  A    between atoms: _245  and  _246
REMARK  102  A    between atoms: _249  and  _251
REMARK  103  A    between atoms: _251  and  _252
REMARK  104  A    between atoms: _251  and  _254
REMARK  105  A    between atoms: _254  and  _255
REMARK  106  A    between atoms: _258  and  _260
REMARK  107  A    between atoms: _260  and  _261
REMARK  108  A    between atoms: _263  and  _265
REMARK  109  A    between atoms: _265  and  _266
REMARK  110  A    between atoms: _265  and  _268
REMARK  111  A    between atoms: _268  and  _269
REMARK  112  A    between atoms: _269  and  _270
REMARK  113  A    between atoms: _270  and  _271
REMARK  114  A    between atoms: _280  and  _282
REMARK  115  A    between atoms: _282  and  _283
REMARK  116  A    between atoms: _282  and  _285
REMARK  117  A    between atoms: _285  and  _286
REMARK  118  A    between atoms: _291  and  _293
REMARK  119  A    between atoms: _293  and  _294
REMARK  120  A    between atoms: _293  and  _296
REMARK  121  A    between atoms: _296  and  _297
REMARK  122  A    between atoms: _297  and  _298
REMARK  123  A    between atoms: _298  and  _299
REMARK  124  A    between atoms: _308  and  _310
REMARK  125  A    between atoms: _310  and  _311
REMARK  126  A    between atoms: _310  and  _313
REMARK  127  A    between atoms: _313  and  _314
REMARK  128  A    between atoms: _317  and  _319
REMARK  129  A    between atoms: _319  and  _320
REMARK  130  A    between atoms: _319  and  _322
REMARK  131  A    between atoms: _322  and  _323
REMARK  132  A    between atoms: _326  and  _328
REMARK  133  A    between atoms: _328  and  _329
REMARK  134  A    between atoms: _328  and  _331
REMARK  135  A    between atoms: _331  and  _332
REMARK  136  A    between atoms: _335  and  _337
REMARK  137  A    between atoms: _337  and  _338
REMARK  138  A    between atoms: _337  and  _340
REMARK  139  A    between atoms: _340  and  _341
REMARK  140  A    between atoms: _344  and  _346
REMARK  141  A    between atoms: _346  and  _347
REMARK  142  A    between atoms: _349  and  _351
REMARK  143  A    between atoms: _351  and  _352
REMARK  144  A    between atoms: _355  and  _357
REMARK  145  A    between atoms: _357  and  _358
REMARK  146  A    between atoms: _357  and  _360
REMARK  147  A    between atoms: _360  and  _361
REMARK  148  A    between atoms: _364  and  _366
REMARK  149  A    between atoms: _366  and  _367
REMARK  150  A    between atoms: _366  and  _369
REMARK  151  A    between atoms: _369  and  _370
REMARK  152  A    between atoms: _373  and  _375
REMARK  153  A    between atoms: _375  and  _376
REMARK  154  A    between atoms: _375  and  _378
REMARK  155  A    between atoms: _378  and  _379
REMARK  156  A    between atoms: _382  and  _384
REMARK  157  A    between atoms: _384  and  _385
REMARK  158  A    between atoms: _384  and  _387
REMARK  159  A    between atoms: _390  and  _392
REMARK  160  A    between atoms: _392  and  _393
REMARK  161  A    between atoms: _392  and  _395
REMARK  162  A    between atoms: _395  and  _396
REMARK  163  A    between atoms: _396  and  _397
REMARK  164  A    between atoms: _397  and  _398
REMARK  165  A    between atoms: _398  and  _399
REMARK  166  A    between atoms: _403  and  _405
REMARK  167  A    between atoms: _405  and  _406
REMARK  168  A    between atoms: _405  and  _408
REMARK  169  A    between atoms: _408  and  _409
REMARK  170  A    between atoms: _409  and  _410
REMARK  171  A    between atoms: _412  and  _414
REMARK  172  A    between atoms: _414  and  _415
REMARK  173  A    between atoms: _414  and  _417
REMARK  174  A    between atoms: _417  and  _418
REMARK  175  A    between atoms: _421  and  _423
REMARK  176  A    between atoms: _423  and  _424
REMARK  177  A    between atoms: _426  and  _428
REMARK  178  A    between atoms: _428  and  _429
REMARK  179  A    between atoms: _431  and  _433
REMARK  180  A    between atoms: _433  and  _434
REMARK  181  A    between atoms: _433  and  _436
REMARK  182  A    between atoms: _436  and  _437
REMARK  183  A    between atoms: _440  and  _442
REMARK  184  A    between atoms: _442  and  _443
REMARK  185  A    between atoms: _445  and  _447
REMARK  186  A    between atoms: _447  and  _448
REMARK  187  A    between atoms: _450  and  _452
REMARK  188  A    between atoms: _452  and  _453
REMARK  189  A    between atoms: _452  and  _455
REMARK  190  A    between atoms: _455  and  _456
REMARK  191  A    between atoms: _462  and  _464
REMARK  192  A    between atoms: _464  and  _465
REMARK  193  A    between atoms: _464  and  _467
REMARK  194  A    between atoms: _467  and  _468
REMARK  195  A    between atoms: _471  and  _473
REMARK  196  A    between atoms: _473  and  _474
REMARK  197  A    between atoms: _473  and  _476
REMARK  198  A    between atoms: _476  and  _477
REMARK  199  A    between atoms: _480  and  _482
REMARK  200  A    between atoms: _482  and  _483
REMARK  201  A    between atoms: _482  and  _485
REMARK  202  A    between atoms: _485  and  _486
REMARK  203  A    between atoms: _490  and  _491
REMARK  204  A    between atoms: _496  and  _498
REMARK  205  A    between atoms: _498  and  _499
REMARK  206  A    between atoms: _498  and  _501
REMARK  207  A    between atoms: _504  and  _506
REMARK  208  A    between atoms: _506  and  _507
REMARK  209  A    between atoms: _506  and  _509
REMARK  210  A    between atoms: _509  and  _510
REMARK  211  A    between atoms: _515  and  _517
REMARK  212  A    between atoms: _517  and  _518
REMARK  213  A    between atoms: _517  and  _520
REMARK  214  A    between atoms: _520  and  _521
REMARK  215  A    between atoms: _524  and  _526
REMARK  216  A    between atoms: _526  and  _527
REMARK  217  A    between atoms: _529  and  _531
REMARK  218  A    between atoms: _531  and  _532
REMARK  219  A    between atoms: _531  and  _534
REMARK  220  A    between atoms: _534  and  _535
REMARK  221  A    between atoms: _535  and  _536
REMARK  222  A    between atoms: _536  and  _537
REMARK  223  A    between atoms: _546  and  _548
REMARK  224  A    between atoms: _548  and  _549
REMARK  225  A    between atoms: _548  and  _551
REMARK  226  A    between atoms: _551  and  _552
REMARK                            x       y       z     vdW  Elec       q    Type
REMARK                         _______ _______ _______ _____ _____    ______ ____
ROOT
ATOM      1  O   HOH     1       9.352  16.151  26.360  0.00  0.00    +0.000 OA
ENDROOT
TORSDOF 0
REMARK  Name = ../refined-set-2016/5bry/5bry_pocket.pdb
REMARK  226 active torsions:
REMARK  status: ('A' for Active; 'I' for Inactive)
REMARK    1  A    between atoms: _1  and  _3
REMARK    2  A    between atoms: _3  and  _4
REMARK    3  A    between atoms: _3  and  _6
REMARK    4  A    between atoms: _6  and  _7
REMARK    5  A    between atoms: _7  and  _8
REMARK    6  A    between atoms: _8  and  _9
REMARK    7  A    between atoms: _18  and  _20
REMARK    8  A    between atoms: _20  and  _21
REMARK    9  A    between atoms: _20  and  _23
REMARK   10  A    between atoms: _23  and  _24
REMARK   11  A    between atoms: _27  and  _29
REMARK   12  A    between atoms: _29  and  _30
REMARK   13  A    between atoms: _29  and  _32
REMARK   14  A    between atoms: _32  and  _33
REMARK   15  A    between atoms: _36  and  _38
REMARK   16  A    between atoms: _38  and  _39
REMARK   17  A    between atoms: _38  and  _41
REMARK   18  A    between atoms: _41  and  _42
REMARK   19  A    between atoms: _45  and  _47
REMARK   20  A    between atoms: _47  and  _48
REMARK   21  A    between atoms: _47  and  _50
REMARK   22  A    between atoms: _50  and  _51
REMARK   23  A    between atoms: _54  and  _56
REMARK   24  A    between atoms: _56  and  _57
REMARK   25  A    between atoms: _59  and  _61
REMARK   26  A    between atoms: _61  and  _62
REMARK   27  A    between atoms: _65  and  _67
REMARK   28  A    between atoms: _67  and  _68
REMARK   29  A    between atoms: _67  and  _70
REMARK   30  A    between atoms: _70  and  _71
REMARK   31  A    between atoms: _74  and  _76
REMARK   32  A    between atoms: _76  and  _77
REMARK   33  A    between atoms: _76  and  _79
REMARK   34  A    between atoms: _79  and  _80
REMARK   35  A    between atoms: _83  and  _85
REMARK   36  A    between atoms: _85  and  _86
REMARK   37  A    between atoms: _85  and  _88
REMARK   38  A    between atoms: _88  and  _89
REMARK   39  A    between atoms: _92  and  _94
REMARK   40  A    between atoms: _94  and  _95
REMARK   41  A    between atoms: _94  and  _97
REMARK   42  A    between atoms: _100  and  _102
REMARK   43  A    between atoms: _102  and  _103
REMARK   44  A    between atoms: _102  and  _105
REMARK   45  A    between atoms: _105  and  _106
REMARK   46  A    between atoms: _106  and  _107
REMARK   47  A    between atoms: _107  and  _108
REMARK   48  A    between atoms: _108  and  _109
REMARK   49  A    between atoms: _113  and  _115
REMARK   50  A    between atoms: _115  and  _116
REMARK   51  A    between atoms: _115  and  _118
REMARK   52  A    between atoms: _118  and  _119
REMARK   53  A    between atoms: _119  and  _120
REMARK   54  A    between atoms: _122  and  _124
REMARK   55  A    between atoms: _124  and  _125
REMARK   56  A    between atoms: _124  and  _127
REMARK   57  A    between atoms: _127  and  _128
REMARK   58  A    between atoms: _131  and  _133
REMARK   59  A    between atoms: _133  and  _134
REMARK   60  A    between atoms: _136  and  _138
REMARK   61  A    between atoms: _138  and  _139
REMARK   62  A    between atoms: _141  and  _143
REMARK   63  A    between atoms: _143  and  _144
REMARK   64  A    between atoms: _143  and  _146
REMARK   65  A    between atoms: _146  and  _147
REMARK   66  A    between atoms: _150  and  _152
REMARK   67  A    between atoms: _152  and  _153
REMARK   68  A    between atoms: _155  and  _157
REMARK   69  A    between atoms: _157  and  _158
REMARK   70  A    between atoms: _160  and  _162
REMARK   71  A    between atoms: _162  and  _163
REMARK   72  A    between atoms: _162  and  _165
REMARK   73  A    between atoms: _165  and  _166
REMARK   74  A    between atoms: _172  and  _174
REMARK   75  A    between atoms: _174  and  _175
REMARK   76  A    between atoms: _174  and  _177
REMARK   77  A    between atoms: _177  and  _178
REMARK   78  A    between atoms: _181  and  _183
REMARK   79  A    between atoms: _183  and  _184
REMARK   80  A    between atoms: _183  and  _186
REMARK   81  A    between atoms: _189  and  _191
REMARK   82  A    between atoms: _191  and  _192
REMARK   83  A    between atoms: _191  and  _194
REMARK   84  A    between atoms: _194  and  _195
REMARK   85  A    between atoms: _199  and  _200
REMARK   86  A    between atoms: _205  and  _207
REMARK   87  A    between atoms: _207  and  _208
REMARK   88  A    between atoms: _207  and  _210
REMARK   89  A    between atoms: _210  and  _211
REMARK   90  A    between atoms: _215  and  _216
REMARK   91  A    between atoms: _221  and  _223
REMARK   92  A    between atoms: _223  and  _224
REMARK   93  A    between atoms: _223  and  _226
REMARK   94  A    between atoms: _229  and  _231
REMARK   95  A    between atoms: _231  and  _232
REMARK   96  A    between atoms: _231  and  _234
REMARK   97  A    between atoms: _234  and  _235
REMARK   98  A    between atoms: _240  and  _242
REMARK   99  A    between atoms: _242  and  _243
REMARK  100  A    between atoms: _242  and  _245
REMARK  101  A    between atoms: _245  and  _246
REMARK  102  A    between atoms: _249  and  _251
REMARK  103  A    between atoms: _251  and  _252
REMARK  104  A    between atoms: _251  and  _254
REMARK  105  A    between atoms: _254  and  _255
REMARK  106  A    between atoms: _258  and  _260
REMARK  107  A    between atoms: _260  and  _261
REMARK  108  A    between atoms: _263  and  _265
REMARK  109  A    between atoms: _265  and  _266
REMARK  110  A    between atoms: _265  and  _268
REMARK  111  A    between atoms: _268  and  _269
REMARK  112  A    between atoms: _269  and  _270
REMARK  113  A    between atoms: _270  and  _271
REMARK  114  A    between atoms: _280  and  _282
REMARK  115  A    between atoms: _282  and  _283
REMARK  116  A    between atoms: _282  and  _285
REMARK  117  A    between atoms: _285  and  _286
REMARK  118  A    between atoms: _291  and  _293
REMARK  119  A    between atoms: _293  and  _294
REMARK  120  A    between atoms: _293  and  _296
REMARK  121  A    between atoms: _296  and  _297
REMARK  122  A    between atoms: _297  and  _298
REMARK  123  A    between atoms: _298  and  _299
REMARK  124  A    between atoms: _308  and  _310
REMARK  125  A    between atoms: _310  and  _311
REMARK  126  A    between atoms: _310  and  _313
REMARK  127  A    between atoms: _313  and  _314
REMARK  128  A    between atoms: _317  and  _319
REMARK  129  A    between atoms: _319  and  _320
REMARK  130  A    between atoms: _319  and  _322
REMARK  131  A    between atoms: _322  and  _323
REMARK  132  A    between atoms: _326  and  _328
REMARK  133  A    between atoms: _328  and  _329
REMARK  134  A    between atoms: _328  and  _331
REMARK  135  A    between atoms: _331  and  _332
REMARK  136  A    between atoms: _335  and  _337
REMARK  137  A    between atoms: _337  and  _338
REMARK  138  A    between atoms: _337  and  _340
REMARK  139  A    between atoms: _340  and  _341
REMARK  140  A    between atoms: _344  and  _346
REMARK  141  A    between atoms: _346  and  _347
REMARK  142  A    between atoms: _349  and  _351
REMARK  143  A    between atoms: _351  and  _352
REMARK  144  A    between atoms: _355  and  _357
REMARK  145  A    between atoms: _357  and  _358
REMARK  146  A    between atoms: _357  and  _360
REMARK  147  A    between atoms: _360  and  _361
REMARK  148  A    between atoms: _364  and  _366
REMARK  149  A    between atoms: _366  and  _367
REMARK  150  A    between atoms: _366  and  _369
REMARK  151  A    between atoms: _369  and  _370
REMARK  152  A    between atoms: _373  and  _375
REMARK  153  A    between atoms: _375  and  _376
REMARK  154  A    between atoms: _375  and  _378
REMARK  155  A    between atoms: _378  and  _379
REMARK  156  A    between atoms: _382  and  _384
REMARK  157  A    between atoms: _384  and  _385
REMARK  158  A    between atoms: _384  and  _387
REMARK  159  A    between atoms: _390  and  _392
REMARK  160  A    between atoms: _392  and  _393
REMARK  161  A    between atoms: _392  and  _395
REMARK  162  A    between atoms: _395  and  _396
REMARK  163  A    between atoms: _396  and  _397
REMARK  164  A    between atoms: _397  and  _398
REMARK  165  A    between atoms: _398  and  _399
REMARK  166  A    between atoms: _403  and  _405
REMARK  167  A    between atoms: _405  and  _406
REMARK  168  A    between atoms: _405  and  _408
REMARK  169  A    between atoms: _408  and  _409
REMARK  170  A    between atoms: _409  and  _410
REMARK  171  A    between atoms: _412  and  _414
REMARK  172  A    between atoms: _414  and  _415
REMARK  173  A    between atoms: _414  and  _417
REMARK  174  A    between atoms: _417  and  _418
REMARK  175  A    between atoms: _421  and  _423
REMARK  176  A    between atoms: _423  and  _424
REMARK  177  A    between atoms: _426  and  _428
REMARK  178  A    between atoms: _428  and  _429
REMARK  179  A    between atoms: _431  and  _433
REMARK  180  A    between atoms: _433  and  _434
REMARK  181  A    between atoms: _433  and  _436
REMARK  182  A    between atoms: _436  and  _437
REMARK  183  A    between atoms: _440  and  _442
REMARK  184  A    between atoms: _442  and  _443
REMARK  185  A    between atoms: _445  and  _447
REMARK  186  A    between atoms: _447  and  _448
REMARK  187  A    between atoms: _450  and  _452
REMARK  188  A    between atoms: _452  and  _453
REMARK  189  A    between atoms: _452  and  _455
REMARK  190  A    between atoms: _455  and  _456
REMARK  191  A    between atoms: _462  and  _464
REMARK  192  A    between atoms: _464  and  _465
REMARK  193  A    between atoms: _464  and  _467
REMARK  194  A    between atoms: _467  and  _468
REMARK  195  A    between atoms: _471  and  _473
REMARK  196  A    between atoms: _473  and  _474
REMARK  197  A    between atoms: _473  and  _476
REMARK  198  A    between atoms: _476  and  _477
REMARK  199  A    between atoms: _480  and  _482
REMARK  200  A    between atoms: _482  and  _483
REMARK  201  A    between atoms: _482  and  _485
REMARK  202  A    between atoms: _485  and  _486
REMARK  203  A    between atoms: _490  and  _491
REMARK  204  A    between atoms: _496  and  _498
REMARK  205  A    between atoms: _498  and  _499
REMARK  206  A    between atoms: _498  and  _501
REMARK  207  A    between atoms: _504  and  _506
REMARK  208  A    between atoms: _506  and  _507
REMARK  209  A    between atoms: _506  and  _509
REMARK  210  A    between atoms: _509  and  _510
REMARK  211  A    between atoms: _515  and  _517
REMARK  212  A    between atoms: _517  and  _518
REMARK  213  A    between atoms: _517  and  _520
REMARK  214  A    between atoms: _520  and  _521
REMARK  215  A    between atoms: _524  and  _526
REMARK  216  A    between atoms: _526  and  _527
REMARK  217  A    between atoms: _529  and  _531
REMARK  218  A    between atoms: _531  and  _532
REMARK  219  A    between atoms: _531  and  _534
REMARK  220  A    between atoms: _534  and  _535
REMARK  221  A    between atoms: _535  and  _536
REMARK  222  A    between atoms: _536  and  _537
REMARK  223  A    between atoms: _546  and  _548
REMARK  224  A    between atoms: _548  and  _549
REMARK  225  A    between atoms: _548  and  _551
REMARK  226  A    between atoms: _551  and  _552
REMARK                            x       y       z     vdW  Elec       q    Type
REMARK                         _______ _______ _______ _____ _____    ______ ____
ROOT
ATOM      1  O   HOH     1      26.275  26.099  16.069  0.00  0.00    +0.000 OA
ENDROOT
TORSDOF 0
REMARK  Name = ../refined-set-2016/5bry/5bry_pocket.pdb
REMARK  226 active torsions:
REMARK  status: ('A' for Active; 'I' for Inactive)
REMARK    1  A    between atoms: _1  and  _3
REMARK    2  A    between atoms: _3  and  _4
REMARK    3  A    between atoms: _3  and  _6
REMARK    4  A    between atoms: _6  and  _7
REMARK    5  A    between atoms: _7  and  _8
REMARK    6  A    between atoms: _8  and  _9
REMARK    7  A    between atoms: _18  and  _20
REMARK    8  A    between atoms: _20  and  _21
REMARK    9  A    between atoms: _20  and  _23
REMARK   10  A    between atoms: _23  and  _24
REMARK   11  A    between atoms: _27  and  _29
REMARK   12  A    between atoms: _29  and  _30
REMARK   13  A    between atoms: _29  and  _32
REMARK   14  A    between atoms: _32  and  _33
REMARK   15  A    between atoms: _36  and  _38
REMARK   16  A    between atoms: _38  and  _39
REMARK   17  A    between atoms: _38  and  _41
REMARK   18  A    between atoms: _41  and  _42
REMARK   19  A    between atoms: _45  and  _47
REMARK   20  A    between atoms: _47  and  _48
REMARK   21  A    between atoms: _47  and  _50
REMARK   22  A    between atoms: _50  and  _51
REMARK   23  A    between atoms: _54  and  _56
REMARK   24  A    between atoms: _56  and  _57
REMARK   25  A    between atoms: _59  and  _61
REMARK   26  A    between atoms: _61  and  _62
REMARK   27  A    between atoms: _65  and  _67
REMARK   28  A    between atoms: _67  and  _68
REMARK   29  A    between atoms: _67  and  _70
REMARK   30  A    between atoms: _70  and  _71
REMARK   31  A    between atoms: _74  and  _76
REMARK   32  A    between atoms: _76  and  _77
REMARK   33  A    between atoms: _76  and  _79
REMARK   34  A    between atoms: _79  and  _80
REMARK   35  A    between atoms: _83  and  _85
REMARK   36  A    between atoms: _85  and  _86
REMARK   37  A    between atoms: _85  and  _88
REMARK   38  A    between atoms: _88  and  _89
REMARK   39  A    between atoms: _92  and  _94
REMARK   40  A    between atoms: _94  and  _95
REMARK   41  A    between atoms: _94  and  _97
REMARK   42  A    between atoms: _100  and  _102
REMARK   43  A    between atoms: _102  and  _103
REMARK   44  A    between atoms: _102  and  _105
REMARK   45  A    between atoms: _105  and  _106
REMARK   46  A    between atoms: _106  and  _107
REMARK   47  A    between atoms: _107  and  _108
REMARK   48  A    between atoms: _108  and  _109
REMARK   49  A    between atoms: _113  and  _115
REMARK   50  A    between atoms: _115  and  _116
REMARK   51  A    between atoms: _115  and  _118
REMARK   52  A    between atoms: _118  and  _119
REMARK   53  A    between atoms: _119  and  _120
REMARK   54  A    between atoms: _122  and  _124
REMARK   55  A    between atoms: _124  and  _125
REMARK   56  A    between atoms: _124  and  _127
REMARK   57  A    between atoms: _127  and  _128
REMARK   58  A    between atoms: _131  and  _133
REMARK   59  A    between atoms: _133  and  _134
REMARK   60  A    between atoms: _136  and  _138
REMARK   61  A    between atoms: _138  and  _139
REMARK   62  A    between atoms: _141  and  _143
REMARK   63  A    between atoms: _143  and  _144
REMARK   64  A    between atoms: _143  and  _146
REMARK   65  A    between atoms: _146  and  _147
REMARK   66  A    between atoms: _150  and  _152
REMARK   67  A    between atoms: _152  and  _153
REMARK   68  A    between atoms: _155  and  _157
REMARK   69  A    between atoms: _157  and  _158
REMARK   70  A    between atoms: _160  and  _162
REMARK   71  A    between atoms: _162  and  _163
REMARK   72  A    between atoms: _162  and  _165
REMARK   73  A    between atoms: _165  and  _166
REMARK   74  A    between atoms: _172  and  _174
REMARK   75  A    between atoms: _174  and  _175
REMARK   76  A    between atoms: _174  and  _177
REMARK   77  A    between atoms: _177  and  _178
REMARK   78  A    between atoms: _181  and  _183
REMARK   79  A    between atoms: _183  and  _184
REMARK   80  A    between atoms: _183  and  _186
REMARK   81  A    between atoms: _189  and  _191
REMARK   82  A    between atoms: _191  and  _192
REMARK   83  A    between atoms: _191  and  _194
REMARK   84  A    between atoms: _194  and  _195
REMARK   85  A    between atoms: _199  and  _200
REMARK   86  A    between atoms: _205  and  _207
REMARK   87  A    between atoms: _207  and  _208
REMARK   88  A    between atoms: _207  and  _210
REMARK   89  A    between atoms: _210  and  _211
REMARK   90  A    between atoms: _215  and  _216
REMARK   91  A    between atoms: _221  and  _223
REMARK   92  A    between atoms: _223  and  _224
REMARK   93  A    between atoms: _223  and  _226
REMARK   94  A    between atoms: _229  and  _231
REMARK   95  A    between atoms: _231  and  _232
REMARK   96  A    between atoms: _231  and  _234
REMARK   97  A    between atoms: _234  and  _235
REMARK   98  A    between atoms: _240  and  _242
REMARK   99  A    between atoms: _242  and  _243
REMARK  100  A    between atoms: _242  and  _245
REMARK  101  A    between atoms: _245  and  _246
REMARK  102  A    between atoms: _249  and  _251
REMARK  103  A    between atoms: _251  and  _252
REMARK  104  A    between atoms: _251  and  _254
REMARK  105  A    between atoms: _254  and  _255
REMARK  106  A    between atoms: _258  and  _260
REMARK  107  A    between atoms: _260  and  _261
REMARK  108  A    between atoms: _263  and  _265
REMARK  109  A    between atoms: _265  and  _266
REMARK  110  A    between atoms: _265  and  _268
REMARK  111  A    between atoms: _268  and  _269
REMARK  112  A    between atoms: _269  and  _270
REMARK  113  A    between atoms: _270  and  _271
REMARK  114  A    between atoms: _280  and  _282
REMARK  115  A    between atoms: _282  and  _283
REMARK  116  A    between atoms: _282  and  _285
REMARK  117  A    between atoms: _285  and  _286
REMARK  118  A    between atoms: _291  and  _293
REMARK  119  A    between atoms: _293  and  _294
REMARK  120  A    between atoms: _293  and  _296
REMARK  121  A    between atoms: _296  and  _297
REMARK  122  A    between atoms: _297  and  _298
REMARK  123  A    between atoms: _298  and  _299
REMARK  124  A    between atoms: _308  and  _310
REMARK  125  A    between atoms: _310  and  _311
REMARK  126  A    between atoms: _310  and  _313
REMARK  127  A    between atoms: _313  and  _314
REMARK  128  A    between atoms: _317  and  _319
REMARK  129  A    between atoms: _319  and  _320
REMARK  130  A    between atoms: _319  and  _322
REMARK  131  A    between atoms: _322  and  _323
REMARK  132  A    between atoms: _326  and  _328
REMARK  133  A    between atoms: _328  and  _329
REMARK  134  A    between atoms: _328  and  _331
REMARK  135  A    between atoms: _331  and  _332
REMARK  136  A    between atoms: _335  and  _337
REMARK  137  A    between atoms: _337  and  _338
REMARK  138  A    between atoms: _337  and  _340
REMARK  139  A    between atoms: _340  and  _341
REMARK  140  A    between atoms: _344  and  _346
REMARK  141  A    between atoms: _346  and  _347
REMARK  142  A    between atoms: _349  and  _351
REMARK  143  A    between atoms: _351  and  _352
REMARK  144  A    between atoms: _355  and  _357
REMARK  145  A    between atoms: _357  and  _358
REMARK  146  A    between atoms: _357  and  _360
REMARK  147  A    between atoms: _360  and  _361
REMARK  148  A    between atoms: _364  and  _366
REMARK  149  A    between atoms: _366  and  _367
REMARK  150  A    between atoms: _366  and  _369
REMARK  151  A    between atoms: _369  and  _370
REMARK  152  A    between atoms: _373  and  _375
REMARK  153  A    between atoms: _375  and  _376
REMARK  154  A    between atoms: _375  and  _378
REMARK  155  A    between atoms: _378  and  _379
REMARK  156  A    between atoms: _382  and  _384
REMARK  157  A    between atoms: _384  and  _385
REMARK  158  A    between atoms: _384  and  _387
REMARK  159  A    between atoms: _390  and  _392
REMARK  160  A    between atoms: _392  and  _393
REMARK  161  A    between atoms: _392  and  _395
REMARK  162  A    between atoms: _395  and  _396
REMARK  163  A    between atoms: _396  and  _397
REMARK  164  A    between atoms: _397  and  _398
REMARK  165  A    between atoms: _398  and  _399
REMARK  166  A    between atoms: _403  and  _405
REMARK  167  A    between atoms: _405  and  _406
REMARK  168  A    between atoms: _405  and  _408
REMARK  169  A    between atoms: _408  and  _409
REMARK  170  A    between atoms: _409  and  _410
REMARK  171  A    between atoms: _412  and  _414
REMARK  172  A    between atoms: _414  and  _415
REMARK  173  A    between atoms: _414  and  _417
REMARK  174  A    between atoms: _417  and  _418
REMARK  175  A    between atoms: _421  and  _423
REMARK  176  A    between atoms: _423  and  _424
REMARK  177  A    between atoms: _426  and  _428
REMARK  178  A    between atoms: _428  and  _429
REMARK  179  A    between atoms: _431  and  _433
REMARK  180  A    between atoms: _433  and  _434
REMARK  181  A    between atoms: _433  and  _436
REMARK  182  A    between atoms: _436  and  _437
REMARK  183  A    between atoms: _440  and  _442
REMARK  184  A    between atoms: _442  and  _443
REMARK  185  A    between atoms: _445  and  _447
REMARK  186  A    between atoms: _447  and  _448
REMARK  187  A    between atoms: _450  and  _452
REMARK  188  A    between atoms: _452  and  _453
REMARK  189  A    between atoms: _452  and  _455
REMARK  190  A    between atoms: _455  and  _456
REMARK  191  A    between atoms: _462  and  _464
REMARK  192  A    between atoms: _464  and  _465
REMARK  193  A    between atoms: _464  and  _467
REMARK  194  A    between atoms: _467  and  _468
REMARK  195  A    between atoms: _471  and  _473
REMARK  196  A    between atoms: _473  and  _474
REMARK  197  A    between atoms: _473  and  _476
REMARK  198  A    between atoms: _476  and  _477
REMARK  199  A    between atoms: _480  and  _482
REMARK  200  A    between atoms: _482  and  _483
REMARK  201  A    between atoms: _482  and  _485
REMARK  202  A    between atoms: _485  and  _486
REMARK  203  A    between atoms: _490  and  _491
REMARK  204  A    between atoms: _496  and  _498
REMARK  205  A    between atoms: _498  and  _499
REMARK  206  A    between atoms: _498  and  _501
REMARK  207  A    between atoms: _504  and  _506
REMARK  208  A    between atoms: _506  and  _507
REMARK  209  A    between atoms: _506  and  _509
REMARK  210  A    between atoms: _509  and  _510
REMARK  211  A    between atoms: _515  and  _517
REMARK  212  A    between atoms: _517  and  _518
REMARK  213  A    between atoms: _517  and  _520
REMARK  214  A    between atoms: _520  and  _521
REMARK  215  A    between atoms: _524  and  _526
REMARK  216  A    between atoms: _526  and  _527
REMARK  217  A    between atoms: _529  and  _531
REMARK  218  A    between atoms: _531  and  _532
REMARK  219  A    between atoms: _531  and  _534
REMARK  220  A    between atoms: _534  and  _535
REMARK  221  A    between atoms: _535  and  _536
REMARK  222  A    between atoms: _536  and  _537
REMARK  223  A    between atoms: _546  and  _548
REMARK  224  A    between atoms: _548  and  _549
REMARK  225  A    between atoms: _548  and  _551
REMARK  226  A    between atoms: _551  and  _552
REMARK                            x       y       z     vdW  Elec       q    Type
REMARK                         _______ _______ _______ _____ _____    ______ ____
ROOT
ATOM      1  O   HOH     1      22.163  27.319  22.859  0.00  0.00    +0.000 OA
ENDROOT
TORSDOF 0
REMARK  Name = ../refined-set-2016/5bry/5bry_pocket.pdb
REMARK  226 active torsions:
REMARK  status: ('A' for Active; 'I' for Inactive)
REMARK    1  A    between atoms: _1  and  _3
REMARK    2  A    between atoms: _3  and  _4
REMARK    3  A    between atoms: _3  and  _6
REMARK    4  A    between atoms: _6  and  _7
REMARK    5  A    between atoms: _7  and  _8
REMARK    6  A    between atoms: _8  and  _9
REMARK    7  A    between atoms: _18  and  _20
REMARK    8  A    between atoms: _20  and  _21
REMARK    9  A    between atoms: _20  and  _23
REMARK   10  A    between atoms: _23  and  _24
REMARK   11  A    between atoms: _27  and  _29
REMARK   12  A    between atoms: _29  and  _30
REMARK   13  A    between atoms: _29  and  _32
REMARK   14  A    between atoms: _32  and  _33
REMARK   15  A    between atoms: _36  and  _38
REMARK   16  A    between atoms: _38  and  _39
REMARK   17  A    between atoms: _38  and  _41
REMARK   18  A    between atoms: _41  and  _42
REMARK   19  A    between atoms: _45  and  _47
REMARK   20  A    between atoms: _47  and  _48
REMARK   21  A    between atoms: _47  and  _50
REMARK   22  A    between atoms: _50  and  _51
REMARK   23  A    between atoms: _54  and  _56
REMARK   24  A    between atoms: _56  and  _57
REMARK   25  A    between atoms: _59  and  _61
REMARK   26  A    between atoms: _61  and  _62
REMARK   27  A    between atoms: _65  and  _67
REMARK   28  A    between atoms: _67  and  _68
REMARK   29  A    between atoms: _67  and  _70
REMARK   30  A    between atoms: _70  and  _71
REMARK   31  A    between atoms: _74  and  _76
REMARK   32  A    between atoms: _76  and  _77
REMARK   33  A    between atoms: _76  and  _79
REMARK   34  A    between atoms: _79  and  _80
REMARK   35  A    between atoms: _83  and  _85
REMARK   36  A    between atoms: _85  and  _86
REMARK   37  A    between atoms: _85  and  _88
REMARK   38  A    between atoms: _88  and  _89
REMARK   39  A    between atoms: _92  and  _94
REMARK   40  A    between atoms: _94  and  _95
REMARK   41  A    between atoms: _94  and  _97
REMARK   42  A    between atoms: _100  and  _102
REMARK   43  A    between atoms: _102  and  _103
REMARK   44  A    between atoms: _102  and  _105
REMARK   45  A    between atoms: _105  and  _106
REMARK   46  A    between atoms: _106  and  _107
REMARK   47  A    between atoms: _107  and  _108
REMARK   48  A    between atoms: _108  and  _109
REMARK   49  A    between atoms: _113  and  _115
REMARK   50  A    between atoms: _115  and  _116
REMARK   51  A    between atoms: _115  and  _118
REMARK   52  A    between atoms: _118  and  _119
REMARK   53  A    between atoms: _119  and  _120
REMARK   54  A    between atoms: _122  and  _124
REMARK   55  A    between atoms: _124  and  _125
REMARK   56  A    between atoms: _124  and  _127
REMARK   57  A    between atoms: _127  and  _128
REMARK   58  A    between atoms: _131  and  _133
REMARK   59  A    between atoms: _133  and  _134
REMARK   60  A    between atoms: _136  and  _138
REMARK   61  A    between atoms: _138  and  _139
REMARK   62  A    between atoms: _141  and  _143
REMARK   63  A    between atoms: _143  and  _144
REMARK   64  A    between atoms: _143  and  _146
REMARK   65  A    between atoms: _146  and  _147
REMARK   66  A    between atoms: _150  and  _152
REMARK   67  A    between atoms: _152  and  _153
REMARK   68  A    between atoms: _155  and  _157
REMARK   69  A    between atoms: _157  and  _158
REMARK   70  A    between atoms: _160  and  _162
REMARK   71  A    between atoms: _162  and  _163
REMARK   72  A    between atoms: _162  and  _165
REMARK   73  A    between atoms: _165  and  _166
REMARK   74  A    between atoms: _172  and  _174
REMARK   75  A    between atoms: _174  and  _175
REMARK   76  A    between atoms: _174  and  _177
REMARK   77  A    between atoms: _177  and  _178
REMARK   78  A    between atoms: _181  and  _183
REMARK   79  A    between atoms: _183  and  _184
REMARK   80  A    between atoms: _183  and  _186
REMARK   81  A    between atoms: _189  and  _191
REMARK   82  A    between atoms: _191  and  _192
REMARK   83  A    between atoms: _191  and  _194
REMARK   84  A    between atoms: _194  and  _195
REMARK   85  A    between atoms: _199  and  _200
REMARK   86  A    between atoms: _205  and  _207
REMARK   87  A    between atoms: _207  and  _208
REMARK   88  A    between atoms: _207  and  _210
REMARK   89  A    between atoms: _210  and  _211
REMARK   90  A    between atoms: _215  and  _216
REMARK   91  A    between atoms: _221  and  _223
REMARK   92  A    between atoms: _223  and  _224
REMARK   93  A    between atoms: _223  and  _226
REMARK   94  A    between atoms: _229  and  _231
REMARK   95  A    between atoms: _231  and  _232
REMARK   96  A    between atoms: _231  and  _234
REMARK   97  A    between atoms: _234  and  _235
REMARK   98  A    between atoms: _240  and  _242
REMARK   99  A    between atoms: _242  and  _243
REMARK  100  A    between atoms: _242  and  _245
REMARK  101  A    between atoms: _245  and  _246
REMARK  102  A    between atoms: _249  and  _251
REMARK  103  A    between atoms: _251  and  _252
REMARK  104  A    between atoms: _251  and  _254
REMARK  105  A    between atoms: _254  and  _255
REMARK  106  A    between atoms: _258  and  _260
REMARK  107  A    between atoms: _260  and  _261
REMARK  108  A    between atoms: _263  and  _265
REMARK  109  A    between atoms: _265  and  _266
REMARK  110  A    between atoms: _265  and  _268
REMARK  111  A    between atoms: _268  and  _269
REMARK  112  A    between atoms: _269  and  _270
REMARK  113  A    between atoms: _270  and  _271
REMARK  114  A    between atoms: _280  and  _282
REMARK  115  A    between atoms: _282  and  _283
REMARK  116  A    between atoms: _282  and  _285
REMARK  117  A    between atoms: _285  and  _286
REMARK  118  A    between atoms: _291  and  _293
REMARK  119  A    between atoms: _293  and  _294
REMARK  120  A    between atoms: _293  and  _296
REMARK  121  A    between atoms: _296  and  _297
REMARK  122  A    between atoms: _297  and  _298
REMARK  123  A    between atoms: _298  and  _299
REMARK  124  A    between atoms: _308  and  _310
REMARK  125  A    between atoms: _310  and  _311
REMARK  126  A    between atoms: _310  and  _313
REMARK  127  A    between atoms: _313  and  _314
REMARK  128  A    between atoms: _317  and  _319
REMARK  129  A    between atoms: _319  and  _320
REMARK  130  A    between atoms: _319  and  _322
REMARK  131  A    between atoms: _322  and  _323
REMARK  132  A    between atoms: _326  and  _328
REMARK  133  A    between atoms: _328  and  _329
REMARK  134  A    between atoms: _328  and  _331
REMARK  135  A    between atoms: _331  and  _332
REMARK  136  A    between atoms: _335  and  _337
REMARK  137  A    between atoms: _337  and  _338
REMARK  138  A    between atoms: _337  and  _340
REMARK  139  A    between atoms: _340  and  _341
REMARK  140  A    between atoms: _344  and  _346
REMARK  141  A    between atoms: _346  and  _347
REMARK  142  A    between atoms: _349  and  _351
REMARK  143  A    between atoms: _351  and  _352
REMARK  144  A    between atoms: _355  and  _357
REMARK  145  A    between atoms: _357  and  _358
REMARK  146  A    between atoms: _357  and  _360
REMARK  147  A    between atoms: _360  and  _361
REMARK  148  A    between atoms: _364  and  _366
REMARK  149  A    between atoms: _366  and  _367
REMARK  150  A    between atoms: _366  and  _369
REMARK  151  A    between atoms: _369  and  _370
REMARK  152  A    between atoms: _373  and  _375
REMARK  153  A    between atoms: _375  and  _376
REMARK  154  A    between atoms: _375  and  _378
REMARK  155  A    between atoms: _378  and  _379
REMARK  156  A    between atoms: _382  and  _384
REMARK  157  A    between atoms: _384  and  _385
REMARK  158  A    between atoms: _384  and  _387
REMARK  159  A    between atoms: _390  and  _392
REMARK  160  A    between atoms: _392  and  _393
REMARK  161  A    between atoms: _392  and  _395
REMARK  162  A    between atoms: _395  and  _396
REMARK  163  A    between atoms: _396  and  _397
REMARK  164  A    between atoms: _397  and  _398
REMARK  165  A    between atoms: _398  and  _399
REMARK  166  A    between atoms: _403  and  _405
REMARK  167  A    between atoms: _405  and  _406
REMARK  168  A    between atoms: _405  and  _408
REMARK  169  A    between atoms: _408  and  _409
REMARK  170  A    between atoms: _409  and  _410
REMARK  171  A    between atoms: _412  and  _414
REMARK  172  A    between atoms: _414  and  _415
REMARK  173  A    between atoms: _414  and  _417
REMARK  174  A    between atoms: _417  and  _418
REMARK  175  A    between atoms: _421  and  _423
REMARK  176  A    between atoms: _423  and  _424
REMARK  177  A    between atoms: _426  and  _428
REMARK  178  A    between atoms: _428  and  _429
REMARK  179  A    between atoms: _431  and  _433
REMARK  180  A    between atoms: _433  and  _434
REMARK  181  A    between atoms: _433  and  _436
REMARK  182  A    between atoms: _436  and  _437
REMARK  183  A    between atoms: _440  and  _442
REMARK  184  A    between atoms: _442  and  _443
REMARK  185  A    between atoms: _445  and  _447
REMARK  186  A    between atoms: _447  and  _448
REMARK  187  A    between atoms: _450  and  _452
REMARK  188  A    between atoms: _452  and  _453
REMARK  189  A    between atoms: _452  and  _455
REMARK  190  A    between atoms: _455  and  _456
REMARK  191  A    between atoms: _462  and  _464
REMARK  192  A    between atoms: _464  and  _465
REMARK  193  A    between atoms: _464  and  _467
REMARK  194  A    between atoms: _467  and  _468
REMARK  195  A    between atoms: _471  and  _473
REMARK  196  A    between atoms: _473  and  _474
REMARK  197  A    between atoms: _473  and  _476
REMARK  198  A    between atoms: _476  and  _477
REMARK  199  A    between atoms: _480  and  _482
REMARK  200  A    between atoms: _482  and  _483
REMARK  201  A    between atoms: _482  and  _485
REMARK  202  A    between atoms: _485  and  _486
REMARK  203  A    between atoms: _490  and  _491
REMARK  204  A    between atoms: _496  and  _498
REMARK  205  A    between atoms: _498  and  _499
REMARK  206  A    between atoms: _498  and  _501
REMARK  207  A    between atoms: _504  and  _506
REMARK  208  A    between atoms: _506  and  _507
REMARK  209  A    between atoms: _506  and  _509
REMARK  210  A    between atoms: _509  and  _510
REMARK  211  A    between atoms: _515  and  _517
REMARK  212  A    between atoms: _517  and  _518
REMARK  213  A    between atoms: _517  and  _520
REMARK  214  A    between atoms: _520  and  _521
REMARK  215  A    between atoms: _524  and  _526
REMARK  216  A    between atoms: _526  and  _527
REMARK  217  A    between atoms: _529  and  _531
REMARK  218  A    between atoms: _531  and  _532
REMARK  219  A    between atoms: _531  and  _534
REMARK  220  A    between atoms: _534  and  _535
REMARK  221  A    between atoms: _535  and  _536
REMARK  222  A    between atoms: _536  and  _537
REMARK  223  A    between atoms: _546  and  _548
REMARK  224  A    between atoms: _548  and  _549
REMARK  225  A    between atoms: _548  and  _551
REMARK  226  A    between atoms: _551  and  _552
REMARK                            x       y       z     vdW  Elec       q    Type
REMARK                         _______ _______ _______ _____ _____    ______ ____
ROOT
ATOM      1  O   HOH     1      23.599  28.091  26.175  0.00  0.00    +0.000 OA
ENDROOT
TORSDOF 0
REMARK  Name = ../refined-set-2016/5bry/5bry_pocket.pdb
REMARK  226 active torsions:
REMARK  status: ('A' for Active; 'I' for Inactive)
REMARK    1  A    between atoms: _1  and  _3
REMARK    2  A    between atoms: _3  and  _4
REMARK    3  A    between atoms: _3  and  _6
REMARK    4  A    between atoms: _6  and  _7
REMARK    5  A    between atoms: _7  and  _8
REMARK    6  A    between atoms: _8  and  _9
REMARK    7  A    between atoms: _18  and  _20
REMARK    8  A    between atoms: _20  and  _21
REMARK    9  A    between atoms: _20  and  _23
REMARK   10  A    between atoms: _23  and  _24
REMARK   11  A    between atoms: _27  and  _29
REMARK   12  A    between atoms: _29  and  _30
REMARK   13  A    between atoms: _29  and  _32
REMARK   14  A    between atoms: _32  and  _33
REMARK   15  A    between atoms: _36  and  _38
REMARK   16  A    between atoms: _38  and  _39
REMARK   17  A    between atoms: _38  and  _41
REMARK   18  A    between atoms: _41  and  _42
REMARK   19  A    between atoms: _45  and  _47
REMARK   20  A    between atoms: _47  and  _48
REMARK   21  A    between atoms: _47  and  _50
REMARK   22  A    between atoms: _50  and  _51
REMARK   23  A    between atoms: _54  and  _56
REMARK   24  A    between atoms: _56  and  _57
REMARK   25  A    between atoms: _59  and  _61
REMARK   26  A    between atoms: _61  and  _62
REMARK   27  A    between atoms: _65  and  _67
REMARK   28  A    between atoms: _67  and  _68
REMARK   29  A    between atoms: _67  and  _70
REMARK   30  A    between atoms: _70  and  _71
REMARK   31  A    between atoms: _74  and  _76
REMARK   32  A    between atoms: _76  and  _77
REMARK   33  A    between atoms: _76  and  _79
REMARK   34  A    between atoms: _79  and  _80
REMARK   35  A    between atoms: _83  and  _85
REMARK   36  A    between atoms: _85  and  _86
REMARK   37  A    between atoms: _85  and  _88
REMARK   38  A    between atoms: _88  and  _89
REMARK   39  A    between atoms: _92  and  _94
REMARK   40  A    between atoms: _94  and  _95
REMARK   41  A    between atoms: _94  and  _97
REMARK   42  A    between atoms: _100  and  _102
REMARK   43  A    between atoms: _102  and  _103
REMARK   44  A    between atoms: _102  and  _105
REMARK   45  A    between atoms: _105  and  _106
REMARK   46  A    between atoms: _106  and  _107
REMARK   47  A    between atoms: _107  and  _108
REMARK   48  A    between atoms: _108  and  _109
REMARK   49  A    between atoms: _113  and  _115
REMARK   50  A    between atoms: _115  and  _116
REMARK   51  A    between atoms: _115  and  _118
REMARK   52  A    between atoms: _118  and  _119
REMARK   53  A    between atoms: _119  and  _120
REMARK   54  A    between atoms: _122  and  _124
REMARK   55  A    between atoms: _124  and  _125
REMARK   56  A    between atoms: _124  and  _127
REMARK   57  A    between atoms: _127  and  _128
REMARK   58  A    between atoms: _131  and  _133
REMARK   59  A    between atoms: _133  and  _134
REMARK   60  A    between atoms: _136  and  _138
REMARK   61  A    between atoms: _138  and  _139
REMARK   62  A    between atoms: _141  and  _143
REMARK   63  A    between atoms: _143  and  _144
REMARK   64  A    between atoms: _143  and  _146
REMARK   65  A    between atoms: _146  and  _147
REMARK   66  A    between atoms: _150  and  _152
REMARK   67  A    between atoms: _152  and  _153
REMARK   68  A    between atoms: _155  and  _157
REMARK   69  A    between atoms: _157  and  _158
REMARK   70  A    between atoms: _160  and  _162
REMARK   71  A    between atoms: _162  and  _163
REMARK   72  A    between atoms: _162  and  _165
REMARK   73  A    between atoms: _165  and  _166
REMARK   74  A    between atoms: _172  and  _174
REMARK   75  A    between atoms: _174  and  _175
REMARK   76  A    between atoms: _174  and  _177
REMARK   77  A    between atoms: _177  and  _178
REMARK   78  A    between atoms: _181  and  _183
REMARK   79  A    between atoms: _183  and  _184
REMARK   80  A    between atoms: _183  and  _186
REMARK   81  A    between atoms: _189  and  _191
REMARK   82  A    between atoms: _191  and  _192
REMARK   83  A    between atoms: _191  and  _194
REMARK   84  A    between atoms: _194  and  _195
REMARK   85  A    between atoms: _199  and  _200
REMARK   86  A    between atoms: _205  and  _207
REMARK   87  A    between atoms: _207  and  _208
REMARK   88  A    between atoms: _207  and  _210
REMARK   89  A    between atoms: _210  and  _211
REMARK   90  A    between atoms: _215  and  _216
REMARK   91  A    between atoms: _221  and  _223
REMARK   92  A    between atoms: _223  and  _224
REMARK   93  A    between atoms: _223  and  _226
REMARK   94  A    between atoms: _229  and  _231
REMARK   95  A    between atoms: _231  and  _232
REMARK   96  A    between atoms: _231  and  _234
REMARK   97  A    between atoms: _234  and  _235
REMARK   98  A    between atoms: _240  and  _242
REMARK   99  A    between atoms: _242  and  _243
REMARK  100  A    between atoms: _242  and  _245
REMARK  101  A    between atoms: _245  and  _246
REMARK  102  A    between atoms: _249  and  _251
REMARK  103  A    between atoms: _251  and  _252
REMARK  104  A    between atoms: _251  and  _254
REMARK  105  A    between atoms: _254  and  _255
REMARK  106  A    between atoms: _258  and  _260
REMARK  107  A    between atoms: _260  and  _261
REMARK  108  A    between atoms: _263  and  _265
REMARK  109  A    between atoms: _265  and  _266
REMARK  110  A    between atoms: _265  and  _268
REMARK  111  A    between atoms: _268  and  _269
REMARK  112  A    between atoms: _269  and  _270
REMARK  113  A    between atoms: _270  and  _271
REMARK  114  A    between atoms: _280  and  _282
REMARK  115  A    between atoms: _282  and  _283
REMARK  116  A    between atoms: _282  and  _285
REMARK  117  A    between atoms: _285  and  _286
REMARK  118  A    between atoms: _291  and  _293
REMARK  119  A    between atoms: _293  and  _294
REMARK  120  A    between atoms: _293  and  _296
REMARK  121  A    between atoms: _296  and  _297
REMARK  122  A    between atoms: _297  and  _298
REMARK  123  A    between atoms: _298  and  _299
REMARK  124  A    between atoms: _308  and  _310
REMARK  125  A    between atoms: _310  and  _311
REMARK  126  A    between atoms: _310  and  _313
REMARK  127  A    between atoms: _313  and  _314
REMARK  128  A    between atoms: _317  and  _319
REMARK  129  A    between atoms: _319  and  _320
REMARK  130  A    between atoms: _319  and  _322
REMARK  131  A    between atoms: _322  and  _323
REMARK  132  A    between atoms: _326  and  _328
REMARK  133  A    between atoms: _328  and  _329
REMARK  134  A    between atoms: _328  and  _331
REMARK  135  A    between atoms: _331  and  _332
REMARK  136  A    between atoms: _335  and  _337
REMARK  137  A    between atoms: _337  and  _338
REMARK  138  A    between atoms: _337  and  _340
REMARK  139  A    between atoms: _340  and  _341
REMARK  140  A    between atoms: _344  and  _346
REMARK  141  A    between atoms: _346  and  _347
REMARK  142  A    between atoms: _349  and  _351
REMARK  143  A    between atoms: _351  and  _352
REMARK  144  A    between atoms: _355  and  _357
REMARK  145  A    between atoms: _357  and  _358
REMARK  146  A    between atoms: _357  and  _360
REMARK  147  A    between atoms: _360  and  _361
REMARK  148  A    between atoms: _364  and  _366
REMARK  149  A    between atoms: _366  and  _367
REMARK  150  A    between atoms: _366  and  _369
REMARK  151  A    between atoms: _369  and  _370
REMARK  152  A    between atoms: _373  and  _375
REMARK  153  A    between atoms: _375  and  _376
REMARK  154  A    between atoms: _375  and  _378
REMARK  155  A    between atoms: _378  and  _379
REMARK  156  A    between atoms: _382  and  _384
REMARK  157  A    between atoms: _384  and  _385
REMARK  158  A    between atoms: _384  and  _387
REMARK  159  A    between atoms: _390  and  _392
REMARK  160  A    between atoms: _392  and  _393
REMARK  161  A    between atoms: _392  and  _395
REMARK  162  A    between atoms: _395  and  _396
REMARK  163  A    between atoms: _396  and  _397
REMARK  164  A    between atoms: _397  and  _398
REMARK  165  A    between atoms: _398  and  _399
REMARK  166  A    between atoms: _403  and  _405
REMARK  167  A    between atoms: _405  and  _406
REMARK  168  A    between atoms: _405  and  _408
REMARK  169  A    between atoms: _408  and  _409
REMARK  170  A    between atoms: _409  and  _410
REMARK  171  A    between atoms: _412  and  _414
REMARK  172  A    between atoms: _414  and  _415
REMARK  173  A    between atoms: _414  and  _417
REMARK  174  A    between atoms: _417  and  _418
REMARK  175  A    between atoms: _421  and  _423
REMARK  176  A    between atoms: _423  and  _424
REMARK  177  A    between atoms: _426  and  _428
REMARK  178  A    between atoms: _428  and  _429
REMARK  179  A    between atoms: _431  and  _433
REMARK  180  A    between atoms: _433  and  _434
REMARK  181  A    between atoms: _433  and  _436
REMARK  182  A    between atoms: _436  and  _437
REMARK  183  A    between atoms: _440  and  _442
REMARK  184  A    between atoms: _442  and  _443
REMARK  185  A    between atoms: _445  and  _447
REMARK  186  A    between atoms: _447  and  _448
REMARK  187  A    between atoms: _450  and  _452
REMARK  188  A    between atoms: _452  and  _453
REMARK  189  A    between atoms: _452  and  _455
REMARK  190  A    between atoms: _455  and  _456
REMARK  191  A    between atoms: _462  and  _464
REMARK  192  A    between atoms: _464  and  _465
REMARK  193  A    between atoms: _464  and  _467
REMARK  194  A    between atoms: _467  and  _468
REMARK  195  A    between atoms: _471  and  _473
REMARK  196  A    between atoms: _473  and  _474
REMARK  197  A    between atoms: _473  and  _476
REMARK  198  A    between atoms: _476  and  _477
REMARK  199  A    between atoms: _480  and  _482
REMARK  200  A    between atoms: _482  and  _483
REMARK  201  A    between atoms: _482  and  _485
REMARK  202  A    between atoms: _485  and  _486
REMARK  203  A    between atoms: _490  and  _491
REMARK  204  A    between atoms: _496  and  _498
REMARK  205  A    between atoms: _498  and  _499
REMARK  206  A    between atoms: _498  and  _501
REMARK  207  A    between atoms: _504  and  _506
REMARK  208  A    between atoms: _506  and  _507
REMARK  209  A    between atoms: _506  and  _509
REMARK  210  A    between atoms: _509  and  _510
REMARK  211  A    between atoms: _515  and  _517
REMARK  212  A    between atoms: _517  and  _518
REMARK  213  A    between atoms: _517  and  _520
REMARK  214  A    between atoms: _520  and  _521
REMARK  215  A    between atoms: _524  and  _526
REMARK  216  A    between atoms: _526  and  _527
REMARK  217  A    between atoms: _529  and  _531
REMARK  218  A    between atoms: _531  and  _532
REMARK  219  A    between atoms: _531  and  _534
REMARK  220  A    between atoms: _534  and  _535
REMARK  221  A    between atoms: _535  and  _536
REMARK  222  A    between atoms: _536  and  _537
REMARK  223  A    between atoms: _546  and  _548
REMARK  224  A    between atoms: _548  and  _549
REMARK  225  A    between atoms: _548  and  _551
REMARK  226  A    between atoms: _551  and  _552
REMARK                            x       y       z     vdW  Elec       q    Type
REMARK                         _______ _______ _______ _____ _____    ______ ____
ROOT
ATOM      1  O   HOH     1      11.092  14.509  13.051  0.00  0.00    +0.000 OA
ENDROOT
TORSDOF 0
REMARK  Name = ../refined-set-2016/5bry/5bry_pocket.pdb
REMARK  226 active torsions:
REMARK  status: ('A' for Active; 'I' for Inactive)
REMARK    1  A    between atoms: _1  and  _3
REMARK    2  A    between atoms: _3  and  _4
REMARK    3  A    between atoms: _3  and  _6
REMARK    4  A    between atoms: _6  and  _7
REMARK    5  A    between atoms: _7  and  _8
REMARK    6  A    between atoms: _8  and  _9
REMARK    7  A    between atoms: _18  and  _20
REMARK    8  A    between atoms: _20  and  _21
REMARK    9  A    between atoms: _20  and  _23
REMARK   10  A    between atoms: _23  and  _24
REMARK   11  A    between atoms: _27  and  _29
REMARK   12  A    between atoms: _29  and  _30
REMARK   13  A    between atoms: _29  and  _32
REMARK   14  A    between atoms: _32  and  _33
REMARK   15  A    between atoms: _36  and  _38
REMARK   16  A    between atoms: _38  and  _39
REMARK   17  A    between atoms: _38  and  _41
REMARK   18  A    between atoms: _41  and  _42
REMARK   19  A    between atoms: _45  and  _47
REMARK   20  A    between atoms: _47  and  _48
REMARK   21  A    between atoms: _47  and  _50
REMARK   22  A    between atoms: _50  and  _51
REMARK   23  A    between atoms: _54  and  _56
REMARK   24  A    between atoms: _56  and  _57
REMARK   25  A    between atoms: _59  and  _61
REMARK   26  A    between atoms: _61  and  _62
REMARK   27  A    between atoms: _65  and  _67
REMARK   28  A    between atoms: _67  and  _68
REMARK   29  A    between atoms: _67  and  _70
REMARK   30  A    between atoms: _70  and  _71
REMARK   31  A    between atoms: _74  and  _76
REMARK   32  A    between atoms: _76  and  _77
REMARK   33  A    between atoms: _76  and  _79
REMARK   34  A    between atoms: _79  and  _80
REMARK   35  A    between atoms: _83  and  _85
REMARK   36  A    between atoms: _85  and  _86
REMARK   37  A    between atoms: _85  and  _88
REMARK   38  A    between atoms: _88  and  _89
REMARK   39  A    between atoms: _92  and  _94
REMARK   40  A    between atoms: _94  and  _95
REMARK   41  A    between atoms: _94  and  _97
REMARK   42  A    between atoms: _100  and  _102
REMARK   43  A    between atoms: _102  and  _103
REMARK   44  A    between atoms: _102  and  _105
REMARK   45  A    between atoms: _105  and  _106
REMARK   46  A    between atoms: _106  and  _107
REMARK   47  A    between atoms: _107  and  _108
REMARK   48  A    between atoms: _108  and  _109
REMARK   49  A    between atoms: _113  and  _115
REMARK   50  A    between atoms: _115  and  _116
REMARK   51  A    between atoms: _115  and  _118
REMARK   52  A    between atoms: _118  and  _119
REMARK   53  A    between atoms: _119  and  _120
REMARK   54  A    between atoms: _122  and  _124
REMARK   55  A    between atoms: _124  and  _125
REMARK   56  A    between atoms: _124  and  _127
REMARK   57  A    between atoms: _127  and  _128
REMARK   58  A    between atoms: _131  and  _133
REMARK   59  A    between atoms: _133  and  _134
REMARK   60  A    between atoms: _136  and  _138
REMARK   61  A    between atoms: _138  and  _139
REMARK   62  A    between atoms: _141  and  _143
REMARK   63  A    between atoms: _143  and  _144
REMARK   64  A    between atoms: _143  and  _146
REMARK   65  A    between atoms: _146  and  _147
REMARK   66  A    between atoms: _150  and  _152
REMARK   67  A    between atoms: _152  and  _153
REMARK   68  A    between atoms: _155  and  _157
REMARK   69  A    between atoms: _157  and  _158
REMARK   70  A    between atoms: _160  and  _162
REMARK   71  A    between atoms: _162  and  _163
REMARK   72  A    between atoms: _162  and  _165
REMARK   73  A    between atoms: _165  and  _166
REMARK   74  A    between atoms: _172  and  _174
REMARK   75  A    between atoms: _174  and  _175
REMARK   76  A    between atoms: _174  and  _177
REMARK   77  A    between atoms: _177  and  _178
REMARK   78  A    between atoms: _181  and  _183
REMARK   79  A    between atoms: _183  and  _184
REMARK   80  A    between atoms: _183  and  _186
REMARK   81  A    between atoms: _189  and  _191
REMARK   82  A    between atoms: _191  and  _192
REMARK   83  A    between atoms: _191  and  _194
REMARK   84  A    between atoms: _194  and  _195
REMARK   85  A    between atoms: _199  and  _200
REMARK   86  A    between atoms: _205  and  _207
REMARK   87  A    between atoms: _207  and  _208
REMARK   88  A    between atoms: _207  and  _210
REMARK   89  A    between atoms: _210  and  _211
REMARK   90  A    between atoms: _215  and  _216
REMARK   91  A    between atoms: _221  and  _223
REMARK   92  A    between atoms: _223  and  _224
REMARK   93  A    between atoms: _223  and  _226
REMARK   94  A    between atoms: _229  and  _231
REMARK   95  A    between atoms: _231  and  _232
REMARK   96  A    between atoms: _231  and  _234
REMARK   97  A    between atoms: _234  and  _235
REMARK   98  A    between atoms: _240  and  _242
REMARK   99  A    between atoms: _242  and  _243
REMARK  100  A    between atoms: _242  and  _245
REMARK  101  A    between atoms: _245  and  _246
REMARK  102  A    between atoms: _249  and  _251
REMARK  103  A    between atoms: _251  and  _252
REMARK  104  A    between atoms: _251  and  _254
REMARK  105  A    between atoms: _254  and  _255
REMARK  106  A    between atoms: _258  and  _260
REMARK  107  A    between atoms: _260  and  _261
REMARK  108  A    between atoms: _263  and  _265
REMARK  109  A    between atoms: _265  and  _266
REMARK  110  A    between atoms: _265  and  _268
REMARK  111  A    between atoms: _268  and  _269
REMARK  112  A    between atoms: _269  and  _270
REMARK  113  A    between atoms: _270  and  _271
REMARK  114  A    between atoms: _280  and  _282
REMARK  115  A    between atoms: _282  and  _283
REMARK  116  A    between atoms: _282  and  _285
REMARK  117  A    between atoms: _285  and  _286
REMARK  118  A    between atoms: _291  and  _293
REMARK  119  A    between atoms: _293  and  _294
REMARK  120  A    between atoms: _293  and  _296
REMARK  121  A    between atoms: _296  and  _297
REMARK  122  A    between atoms: _297  and  _298
REMARK  123  A    between atoms: _298  and  _299
REMARK  124  A    between atoms: _308  and  _310
REMARK  125  A    between atoms: _310  and  _311
REMARK  126  A    between atoms: _310  and  _313
REMARK  127  A    between atoms: _313  and  _314
REMARK  128  A    between atoms: _317  and  _319
REMARK  129  A    between atoms: _319  and  _320
REMARK  130  A    between atoms: _319  and  _322
REMARK  131  A    between atoms: _322  and  _323
REMARK  132  A    between atoms: _326  and  _328
REMARK  133  A    between atoms: _328  and  _329
REMARK  134  A    between atoms: _328  and  _331
REMARK  135  A    between atoms: _331  and  _332
REMARK  136  A    between atoms: _335  and  _337
REMARK  137  A    between atoms: _337  and  _338
REMARK  138  A    between atoms: _337  and  _340
REMARK  139  A    between atoms: _340  and  _341
REMARK  140  A    between atoms: _344  and  _346
REMARK  141  A    between atoms: _346  and  _347
REMARK  142  A    between atoms: _349  and  _351
REMARK  143  A    between atoms: _351  and  _352
REMARK  144  A    between atoms: _355  and  _357
REMARK  145  A    between atoms: _357  and  _358
REMARK  146  A    between atoms: _357  and  _360
REMARK  147  A    between atoms: _360  and  _361
REMARK  148  A    between atoms: _364  and  _366
REMARK  149  A    between atoms: _366  and  _367
REMARK  150  A    between atoms: _366  and  _369
REMARK  151  A    between atoms: _369  and  _370
REMARK  152  A    between atoms: _373  and  _375
REMARK  153  A    between atoms: _375  and  _376
REMARK  154  A    between atoms: _375  and  _378
REMARK  155  A    between atoms: _378  and  _379
REMARK  156  A    between atoms: _382  and  _384
REMARK  157  A    between atoms: _384  and  _385
REMARK  158  A    between atoms: _384  and  _387
REMARK  159  A    between atoms: _390  and  _392
REMARK  160  A    between atoms: _392  and  _393
REMARK  161  A    between atoms: _392  and  _395
REMARK  162  A    between atoms: _395  and  _396
REMARK  163  A    between atoms: _396  and  _397
REMARK  164  A    between atoms: _397  and  _398
REMARK  165  A    between atoms: _398  and  _399
REMARK  166  A    between atoms: _403  and  _405
REMARK  167  A    between atoms: _405  and  _406
REMARK  168  A    between atoms: _405  and  _408
REMARK  169  A    between atoms: _408  and  _409
REMARK  170  A    between atoms: _409  and  _410
REMARK  171  A    between atoms: _412  and  _414
REMARK  172  A    between atoms: _414  and  _415
REMARK  173  A    between atoms: _414  and  _417
REMARK  174  A    between atoms: _417  and  _418
REMARK  175  A    between atoms: _421  and  _423
REMARK  176  A    between atoms: _423  and  _424
REMARK  177  A    between atoms: _426  and  _428
REMARK  178  A    between atoms: _428  and  _429
REMARK  179  A    between atoms: _431  and  _433
REMARK  180  A    between atoms: _433  and  _434
REMARK  181  A    between atoms: _433  and  _436
REMARK  182  A    between atoms: _436  and  _437
REMARK  183  A    between atoms: _440  and  _442
REMARK  184  A    between atoms: _442  and  _443
REMARK  185  A    between atoms: _445  and  _447
REMARK  186  A    between atoms: _447  and  _448
REMARK  187  A    between atoms: _450  and  _452
REMARK  188  A    between atoms: _452  and  _453
REMARK  189  A    between atoms: _452  and  _455
REMARK  190  A    between atoms: _455  and  _456
REMARK  191  A    between atoms: _462  and  _464
REMARK  192  A    between atoms: _464  and  _465
REMARK  193  A    between atoms: _464  and  _467
REMARK  194  A    between atoms: _467  and  _468
REMARK  195  A    between atoms: _471  and  _473
REMARK  196  A    between atoms: _473  and  _474
REMARK  197  A    between atoms: _473  and  _476
REMARK  198  A    between atoms: _476  and  _477
REMARK  199  A    between atoms: _480  and  _482
REMARK  200  A    between atoms: _482  and  _483
REMARK  201  A    between atoms: _482  and  _485
REMARK  202  A    between atoms: _485  and  _486
REMARK  203  A    between atoms: _490  and  _491
REMARK  204  A    between atoms: _496  and  _498
REMARK  205  A    between atoms: _498  and  _499
REMARK  206  A    between atoms: _498  and  _501
REMARK  207  A    between atoms: _504  and  _506
REMARK  208  A    between atoms: _506  and  _507
REMARK  209  A    between atoms: _506  and  _509
REMARK  210  A    between atoms: _509  and  _510
REMARK  211  A    between atoms: _515  and  _517
REMARK  212  A    between atoms: _517  and  _518
REMARK  213  A    between atoms: _517  and  _520
REMARK  214  A    between atoms: _520  and  _521
REMARK  215  A    between atoms: _524  and  _526
REMARK  216  A    between atoms: _526  and  _527
REMARK  217  A    between atoms: _529  and  _531
REMARK  218  A    between atoms: _531  and  _532
REMARK  219  A    between atoms: _531  and  _534
REMARK  220  A    between atoms: _534  and  _535
REMARK  221  A    between atoms: _535  and  _536
REMARK  222  A    between atoms: _536  and  _537
REMARK  223  A    between atoms: _546  and  _548
REMARK  224  A    between atoms: _548  and  _549
REMARK  225  A    between atoms: _548  and  _551
REMARK  226  A    between atoms: _551  and  _552
REMARK                            x       y       z     vdW  Elec       q    Type
REMARK                         _______ _______ _______ _____ _____    ______ ____
ROOT
ATOM      1  O   HOH     1      13.233  16.161  11.473  0.00  0.00    +0.000 OA
ENDROOT
TORSDOF 0
