REMARK  Name = ../refined-set-2016/3djq/3djq_pocket.pdb
REMARK  127 active torsions:
REMARK  status: ('A' for Active; 'I' for Inactive)
REMARK    1  A    between atoms: _1  and  _3
REMARK    2  A    between atoms: _3  and  _4
REMARK    3  A    between atoms: _3  and  _6
REMARK    4  A    between atoms: _6  and  _7
REMARK    5  A    between atoms: _7  and  _8
REMARK    6  A    between atoms: _10  and  _12
REMARK    7  A    between atoms: _12  and  _13
REMARK    8  A    between atoms: _12  and  _15
REMARK    9  A    between atoms: _15  and  _16
REMARK   10  A    between atoms: _16  and  _17
REMARK   11  A    between atoms: _19  and  _21
REMARK   12  A    between atoms: _21  and  _22
REMARK   13  A    between atoms: _21  and  _24
REMARK   14  A    between atoms: _24  and  _25
REMARK   15  A    between atoms: _25  and  _26
REMARK   16  A    between atoms: _26  and  _27
REMARK   17  A    between atoms: _27  and  _28
REMARK   18  A    between atoms: _32  and  _34
REMARK   19  A    between atoms: _34  and  _35
REMARK   20  A    between atoms: _34  and  _37
REMARK   21  A    between atoms: _37  and  _38
REMARK   22  A    between atoms: _38  and  _39
REMARK   23  A    between atoms: _39  and  _40
REMARK   24  A    between atoms: _40  and  _41
REMARK   25  A    between atoms: _46  and  _47
REMARK   26  A    between atoms: _52  and  _54
REMARK   27  A    between atoms: _54  and  _55
REMARK   28  A    between atoms: _54  and  _57
REMARK   29  A    between atoms: _60  and  _62
REMARK   30  A    between atoms: _62  and  _63
REMARK   31  A    between atoms: _62  and  _65
REMARK   32  A    between atoms: _65  and  _66
REMARK   33  A    between atoms: _71  and  _73
REMARK   34  A    between atoms: _73  and  _74
REMARK   35  A    between atoms: _73  and  _76
REMARK   36  A    between atoms: _76  and  _77
REMARK   37  A    between atoms: _80  and  _82
REMARK   38  A    between atoms: _82  and  _83
REMARK   39  A    between atoms: _82  and  _85
REMARK   40  A    between atoms: _85  and  _86
REMARK   41  A    between atoms: _92  and  _94
REMARK   42  A    between atoms: _94  and  _95
REMARK   43  A    between atoms: _94  and  _97
REMARK   44  A    between atoms: _97  and  _98
REMARK   45  A    between atoms: _98  and  _99
REMARK   46  A    between atoms: _99  and  _100
REMARK   47  A    between atoms: _100  and  _101
REMARK   48  A    between atoms: _105  and  _107
REMARK   49  A    between atoms: _107  and  _108
REMARK   50  A    between atoms: _107  and  _110
REMARK   51  A    between atoms: _110  and  _111
REMARK   52  A    between atoms: _116  and  _118
REMARK   53  A    between atoms: _118  and  _119
REMARK   54  A    between atoms: _118  and  _121
REMARK   55  A    between atoms: _121  and  _122
REMARK   56  A    between atoms: _125  and  _127
REMARK   57  A    between atoms: _127  and  _128
REMARK   58  A    between atoms: _127  and  _130
REMARK   59  A    between atoms: _130  and  _131
REMARK   60  A    between atoms: _134  and  _136
REMARK   61  A    between atoms: _136  and  _137
REMARK   62  A    between atoms: _136  and  _139
REMARK   63  A    between atoms: _139  and  _140
REMARK   64  A    between atoms: _143  and  _145
REMARK   65  A    between atoms: _145  and  _146
REMARK   66  A    between atoms: _145  and  _148
REMARK   67  A    between atoms: _150  and  _152
REMARK   68  A    between atoms: _152  and  _153
REMARK   69  A    between atoms: _152  and  _155
REMARK   70  A    between atoms: _155  and  _156
REMARK   71  A    between atoms: _156  and  _157
REMARK   72  A    between atoms: _157  and  _158
REMARK   73  A    between atoms: _167  and  _169
REMARK   74  A    between atoms: _169  and  _170
REMARK   75  A    between atoms: _169  and  _172
REMARK   76  A    between atoms: _172  and  _173
REMARK   77  A    between atoms: _173  and  _174
REMARK   78  A    between atoms: _174  and  _175
REMARK   79  A    between atoms: _175  and  _176
REMARK   80  A    between atoms: _180  and  _182
REMARK   81  A    between atoms: _182  and  _183
REMARK   82  A    between atoms: _182  and  _185
REMARK   83  A    between atoms: _185  and  _186
REMARK   84  A    between atoms: _189  and  _191
REMARK   85  A    between atoms: _191  and  _192
REMARK   86  A    between atoms: _191  and  _194
REMARK   87  A    between atoms: _197  and  _199
REMARK   88  A    between atoms: _199  and  _200
REMARK   89  A    between atoms: _199  and  _202
REMARK   90  A    between atoms: _202  and  _203
REMARK   91  A    between atoms: _208  and  _210
REMARK   92  A    between atoms: _210  and  _211
REMARK   93  A    between atoms: _210  and  _213
REMARK   94  A    between atoms: _213  and  _214
REMARK   95  A    between atoms: _220  and  _222
REMARK   96  A    between atoms: _222  and  _223
REMARK   97  A    between atoms: _222  and  _225
REMARK   98  A    between atoms: _225  and  _226
REMARK   99  A    between atoms: _229  and  _231
REMARK  100  A    between atoms: _231  and  _232
REMARK  101  A    between atoms: _235  and  _237
REMARK  102  A    between atoms: _237  and  _238
REMARK  103  A    between atoms: _237  and  _240
REMARK  104  A    between atoms: _240  and  _241
REMARK  105  A    between atoms: _243  and  _245
REMARK  106  A    between atoms: _245  and  _246
REMARK  107  A    between atoms: _245  and  _248
REMARK  108  A    between atoms: _252  and  _254
REMARK  109  A    between atoms: _254  and  _255
REMARK  110  A    between atoms: _254  and  _257
REMARK  111  A    between atoms: _257  and  _258
REMARK  112  A    between atoms: _258  and  _259
REMARK  113  A    between atoms: _259  and  _260
REMARK  114  A    between atoms: _260  and  _261
REMARK  115  A    between atoms: _265  and  _267
REMARK  116  A    between atoms: _267  and  _268
REMARK  117  A    between atoms: _267  and  _270
REMARK  118  A    between atoms: _270  and  _271
REMARK  119  A    between atoms: _277  and  _279
REMARK  120  A    between atoms: _279  and  _280
REMARK  121  A    between atoms: _279  and  _282
REMARK  122  A    between atoms: _282  and  _283
REMARK  123  A    between atoms: _283  and  _284
REMARK  124  A    between atoms: _289  and  _291
REMARK  125  A    between atoms: _291  and  _292
REMARK  126  A    between atoms: _291  and  _294
REMARK  127  A    between atoms: _294  and  _295
REMARK                            x       y       z     vdW  Elec       q    Type
REMARK                         _______ _______ _______ _____ _____    ______ ____
ROOT
ATOM      1  CA  MET A   1      22.333  30.191  10.062  0.00  0.00    +0.134 C 
ENDROOT
BRANCH   1   2
ATOM      2  N   MET A   1      21.978  29.292   8.975  0.00  0.00    -0.239 NA
ATOM      3  H   MET A   1      21.238  29.567   8.297  0.00  0.00    +0.142 HD
ENDBRANCH   1   2
BRANCH   1   4
ATOM      4  C   MET A   1      22.078  29.537  11.417  0.00  0.00    +0.224 C 
ATOM      5  O   MET A   1      22.835  29.747  12.359  0.00  0.00    -0.287 OA
ENDBRANCH   1   4
BRANCH   1   6
ATOM      6  CB  MET A   1      21.586  31.518   9.938  0.00  0.00    +0.037 C 
BRANCH   6   7
ATOM      7  CG  MET A   1      21.981  32.335   8.700  0.00  0.00    +0.059 C 
BRANCH   7   8
ATOM      8  SD  MET A   1      23.717  32.828   8.707  0.00  0.00    -0.139 S 
ATOM      9  CE  MET A   1      23.675  34.168   9.899  0.00  0.00    +0.069 C 
ENDBRANCH   7   8
ENDBRANCH   6   7
ENDBRANCH   1   6
TORSDOF 5
REMARK  Name = ../refined-set-2016/3djq/3djq_pocket.pdb
REMARK  127 active torsions:
REMARK  status: ('A' for Active; 'I' for Inactive)
REMARK    1  A    between atoms: _1  and  _3
REMARK    2  A    between atoms: _3  and  _4
REMARK    3  A    between atoms: _3  and  _6
REMARK    4  A    between atoms: _6  and  _7
REMARK    5  A    between atoms: _7  and  _8
REMARK    6  A    between atoms: _10  and  _12
REMARK    7  A    between atoms: _12  and  _13
REMARK    8  A    between atoms: _12  and  _15
REMARK    9  A    between atoms: _15  and  _16
REMARK   10  A    between atoms: _16  and  _17
REMARK   11  A    between atoms: _19  and  _21
REMARK   12  A    between atoms: _21  and  _22
REMARK   13  A    between atoms: _21  and  _24
REMARK   14  A    between atoms: _24  and  _25
REMARK   15  A    between atoms: _25  and  _26
REMARK   16  A    between atoms: _26  and  _27
REMARK   17  A    between atoms: _27  and  _28
REMARK   18  A    between atoms: _32  and  _34
REMARK   19  A    between atoms: _34  and  _35
REMARK   20  A    between atoms: _34  and  _37
REMARK   21  A    between atoms: _37  and  _38
REMARK   22  A    between atoms: _38  and  _39
REMARK   23  A    between atoms: _39  and  _40
REMARK   24  A    between atoms: _40  and  _41
REMARK   25  A    between atoms: _46  and  _47
REMARK   26  A    between atoms: _52  and  _54
REMARK   27  A    between atoms: _54  and  _55
REMARK   28  A    between atoms: _54  and  _57
REMARK   29  A    between atoms: _60  and  _62
REMARK   30  A    between atoms: _62  and  _63
REMARK   31  A    between atoms: _62  and  _65
REMARK   32  A    between atoms: _65  and  _66
REMARK   33  A    between atoms: _71  and  _73
REMARK   34  A    between atoms: _73  and  _74
REMARK   35  A    between atoms: _73  and  _76
REMARK   36  A    between atoms: _76  and  _77
REMARK   37  A    between atoms: _80  and  _82
REMARK   38  A    between atoms: _82  and  _83
REMARK   39  A    between atoms: _82  and  _85
REMARK   40  A    between atoms: _85  and  _86
REMARK   41  A    between atoms: _92  and  _94
REMARK   42  A    between atoms: _94  and  _95
REMARK   43  A    between atoms: _94  and  _97
REMARK   44  A    between atoms: _97  and  _98
REMARK   45  A    between atoms: _98  and  _99
REMARK   46  A    between atoms: _99  and  _100
REMARK   47  A    between atoms: _100  and  _101
REMARK   48  A    between atoms: _105  and  _107
REMARK   49  A    between atoms: _107  and  _108
REMARK   50  A    between atoms: _107  and  _110
REMARK   51  A    between atoms: _110  and  _111
REMARK   52  A    between atoms: _116  and  _118
REMARK   53  A    between atoms: _118  and  _119
REMARK   54  A    between atoms: _118  and  _121
REMARK   55  A    between atoms: _121  and  _122
REMARK   56  A    between atoms: _125  and  _127
REMARK   57  A    between atoms: _127  and  _128
REMARK   58  A    between atoms: _127  and  _130
REMARK   59  A    between atoms: _130  and  _131
REMARK   60  A    between atoms: _134  and  _136
REMARK   61  A    between atoms: _136  and  _137
REMARK   62  A    between atoms: _136  and  _139
REMARK   63  A    between atoms: _139  and  _140
REMARK   64  A    between atoms: _143  and  _145
REMARK   65  A    between atoms: _145  and  _146
REMARK   66  A    between atoms: _145  and  _148
REMARK   67  A    between atoms: _150  and  _152
REMARK   68  A    between atoms: _152  and  _153
REMARK   69  A    between atoms: _152  and  _155
REMARK   70  A    between atoms: _155  and  _156
REMARK   71  A    between atoms: _156  and  _157
REMARK   72  A    between atoms: _157  and  _158
REMARK   73  A    between atoms: _167  and  _169
REMARK   74  A    between atoms: _169  and  _170
REMARK   75  A    between atoms: _169  and  _172
REMARK   76  A    between atoms: _172  and  _173
REMARK   77  A    between atoms: _173  and  _174
REMARK   78  A    between atoms: _174  and  _175
REMARK   79  A    between atoms: _175  and  _176
REMARK   80  A    between atoms: _180  and  _182
REMARK   81  A    between atoms: _182  and  _183
REMARK   82  A    between atoms: _182  and  _185
REMARK   83  A    between atoms: _185  and  _186
REMARK   84  A    between atoms: _189  and  _191
REMARK   85  A    between atoms: _191  and  _192
REMARK   86  A    between atoms: _191  and  _194
REMARK   87  A    between atoms: _197  and  _199
REMARK   88  A    between atoms: _199  and  _200
REMARK   89  A    between atoms: _199  and  _202
REMARK   90  A    between atoms: _202  and  _203
REMARK   91  A    between atoms: _208  and  _210
REMARK   92  A    between atoms: _210  and  _211
REMARK   93  A    between atoms: _210  and  _213
REMARK   94  A    between atoms: _213  and  _214
REMARK   95  A    between atoms: _220  and  _222
REMARK   96  A    between atoms: _222  and  _223
REMARK   97  A    between atoms: _222  and  _225
REMARK   98  A    between atoms: _225  and  _226
REMARK   99  A    between atoms: _229  and  _231
REMARK  100  A    between atoms: _231  and  _232
REMARK  101  A    between atoms: _235  and  _237
REMARK  102  A    between atoms: _237  and  _238
REMARK  103  A    between atoms: _237  and  _240
REMARK  104  A    between atoms: _240  and  _241
REMARK  105  A    between atoms: _243  and  _245
REMARK  106  A    between atoms: _245  and  _246
REMARK  107  A    between atoms: _245  and  _248
REMARK  108  A    between atoms: _252  and  _254
REMARK  109  A    between atoms: _254  and  _255
REMARK  110  A    between atoms: _254  and  _257
REMARK  111  A    between atoms: _257  and  _258
REMARK  112  A    between atoms: _258  and  _259
REMARK  113  A    between atoms: _259  and  _260
REMARK  114  A    between atoms: _260  and  _261
REMARK  115  A    between atoms: _265  and  _267
REMARK  116  A    between atoms: _267  and  _268
REMARK  117  A    between atoms: _267  and  _270
REMARK  118  A    between atoms: _270  and  _271
REMARK  119  A    between atoms: _277  and  _279
REMARK  120  A    between atoms: _279  and  _280
REMARK  121  A    between atoms: _279  and  _282
REMARK  122  A    between atoms: _282  and  _283
REMARK  123  A    between atoms: _283  and  _284
REMARK  124  A    between atoms: _289  and  _291
REMARK  125  A    between atoms: _291  and  _292
REMARK  126  A    between atoms: _291  and  _294
REMARK  127  A    between atoms: _294  and  _295
REMARK                            x       y       z     vdW  Elec       q    Type
REMARK                         _______ _______ _______ _____ _____    ______ ____
ROOT
ATOM      1  CA  MET A   1      24.876  32.028  14.136  0.00  0.00    +0.134 C 
ENDROOT
BRANCH   1   2
ATOM      2  N   MET A   1      24.859  30.573  14.219  0.00  0.00    -0.239 NA
ATOM      3  H   MET A   1      24.284  30.027  13.546  0.00  0.00    +0.142 HD
ENDBRANCH   1   2
BRANCH   1   4
ATOM      4  C   MET A   1      23.533  32.651  14.531  0.00  0.00    +0.224 C 
ATOM      5  O   MET A   1      23.260  33.810  14.225  0.00  0.00    -0.287 OA
ENDBRANCH   1   4
BRANCH   1   6
ATOM      6  CB  MET A   1      25.353  32.482  12.759  0.00  0.00    +0.037 C 
BRANCH   6   7
ATOM      7  CG  MET A   1      26.861  32.302  12.579  0.00  0.00    +0.059 C 
BRANCH   7   8
ATOM      8  SD  MET A   1      27.371  32.571  10.886  0.00  0.00    -0.139 S 
ATOM      9  CE  MET A   1      26.830  31.028  10.165  0.00  0.00    +0.069 C 
ENDBRANCH   7   8
ENDBRANCH   6   7
ENDBRANCH   1   6
TORSDOF 5
REMARK  Name = ../refined-set-2016/3djq/3djq_pocket.pdb
REMARK  127 active torsions:
REMARK  status: ('A' for Active; 'I' for Inactive)
REMARK    1  A    between atoms: _1  and  _3
REMARK    2  A    between atoms: _3  and  _4
REMARK    3  A    between atoms: _3  and  _6
REMARK    4  A    between atoms: _6  and  _7
REMARK    5  A    between atoms: _7  and  _8
REMARK    6  A    between atoms: _10  and  _12
REMARK    7  A    between atoms: _12  and  _13
REMARK    8  A    between atoms: _12  and  _15
REMARK    9  A    between atoms: _15  and  _16
REMARK   10  A    between atoms: _16  and  _17
REMARK   11  A    between atoms: _19  and  _21
REMARK   12  A    between atoms: _21  and  _22
REMARK   13  A    between atoms: _21  and  _24
REMARK   14  A    between atoms: _24  and  _25
REMARK   15  A    between atoms: _25  and  _26
REMARK   16  A    between atoms: _26  and  _27
REMARK   17  A    between atoms: _27  and  _28
REMARK   18  A    between atoms: _32  and  _34
REMARK   19  A    between atoms: _34  and  _35
REMARK   20  A    between atoms: _34  and  _37
REMARK   21  A    between atoms: _37  and  _38
REMARK   22  A    between atoms: _38  and  _39
REMARK   23  A    between atoms: _39  and  _40
REMARK   24  A    between atoms: _40  and  _41
REMARK   25  A    between atoms: _46  and  _47
REMARK   26  A    between atoms: _52  and  _54
REMARK   27  A    between atoms: _54  and  _55
REMARK   28  A    between atoms: _54  and  _57
REMARK   29  A    between atoms: _60  and  _62
REMARK   30  A    between atoms: _62  and  _63
REMARK   31  A    between atoms: _62  and  _65
REMARK   32  A    between atoms: _65  and  _66
REMARK   33  A    between atoms: _71  and  _73
REMARK   34  A    between atoms: _73  and  _74
REMARK   35  A    between atoms: _73  and  _76
REMARK   36  A    between atoms: _76  and  _77
REMARK   37  A    between atoms: _80  and  _82
REMARK   38  A    between atoms: _82  and  _83
REMARK   39  A    between atoms: _82  and  _85
REMARK   40  A    between atoms: _85  and  _86
REMARK   41  A    between atoms: _92  and  _94
REMARK   42  A    between atoms: _94  and  _95
REMARK   43  A    between atoms: _94  and  _97
REMARK   44  A    between atoms: _97  and  _98
REMARK   45  A    between atoms: _98  and  _99
REMARK   46  A    between atoms: _99  and  _100
REMARK   47  A    between atoms: _100  and  _101
REMARK   48  A    between atoms: _105  and  _107
REMARK   49  A    between atoms: _107  and  _108
REMARK   50  A    between atoms: _107  and  _110
REMARK   51  A    between atoms: _110  and  _111
REMARK   52  A    between atoms: _116  and  _118
REMARK   53  A    between atoms: _118  and  _119
REMARK   54  A    between atoms: _118  and  _121
REMARK   55  A    between atoms: _121  and  _122
REMARK   56  A    between atoms: _125  and  _127
REMARK   57  A    between atoms: _127  and  _128
REMARK   58  A    between atoms: _127  and  _130
REMARK   59  A    between atoms: _130  and  _131
REMARK   60  A    between atoms: _134  and  _136
REMARK   61  A    between atoms: _136  and  _137
REMARK   62  A    between atoms: _136  and  _139
REMARK   63  A    between atoms: _139  and  _140
REMARK   64  A    between atoms: _143  and  _145
REMARK   65  A    between atoms: _145  and  _146
REMARK   66  A    between atoms: _145  and  _148
REMARK   67  A    between atoms: _150  and  _152
REMARK   68  A    between atoms: _152  and  _153
REMARK   69  A    between atoms: _152  and  _155
REMARK   70  A    between atoms: _155  and  _156
REMARK   71  A    between atoms: _156  and  _157
REMARK   72  A    between atoms: _157  and  _158
REMARK   73  A    between atoms: _167  and  _169
REMARK   74  A    between atoms: _169  and  _170
REMARK   75  A    between atoms: _169  and  _172
REMARK   76  A    between atoms: _172  and  _173
REMARK   77  A    between atoms: _173  and  _174
REMARK   78  A    between atoms: _174  and  _175
REMARK   79  A    between atoms: _175  and  _176
REMARK   80  A    between atoms: _180  and  _182
REMARK   81  A    between atoms: _182  and  _183
REMARK   82  A    between atoms: _182  and  _185
REMARK   83  A    between atoms: _185  and  _186
REMARK   84  A    between atoms: _189  and  _191
REMARK   85  A    between atoms: _191  and  _192
REMARK   86  A    between atoms: _191  and  _194
REMARK   87  A    between atoms: _197  and  _199
REMARK   88  A    between atoms: _199  and  _200
REMARK   89  A    between atoms: _199  and  _202
REMARK   90  A    between atoms: _202  and  _203
REMARK   91  A    between atoms: _208  and  _210
REMARK   92  A    between atoms: _210  and  _211
REMARK   93  A    between atoms: _210  and  _213
REMARK   94  A    between atoms: _213  and  _214
REMARK   95  A    between atoms: _220  and  _222
REMARK   96  A    between atoms: _222  and  _223
REMARK   97  A    between atoms: _222  and  _225
REMARK   98  A    between atoms: _225  and  _226
REMARK   99  A    between atoms: _229  and  _231
REMARK  100  A    between atoms: _231  and  _232
REMARK  101  A    between atoms: _235  and  _237
REMARK  102  A    between atoms: _237  and  _238
REMARK  103  A    between atoms: _237  and  _240
REMARK  104  A    between atoms: _240  and  _241
REMARK  105  A    between atoms: _243  and  _245
REMARK  106  A    between atoms: _245  and  _246
REMARK  107  A    between atoms: _245  and  _248
REMARK  108  A    between atoms: _252  and  _254
REMARK  109  A    between atoms: _254  and  _255
REMARK  110  A    between atoms: _254  and  _257
REMARK  111  A    between atoms: _257  and  _258
REMARK  112  A    between atoms: _258  and  _259
REMARK  113  A    between atoms: _259  and  _260
REMARK  114  A    between atoms: _260  and  _261
REMARK  115  A    between atoms: _265  and  _267
REMARK  116  A    between atoms: _267  and  _268
REMARK  117  A    between atoms: _267  and  _270
REMARK  118  A    between atoms: _270  and  _271
REMARK  119  A    between atoms: _277  and  _279
REMARK  120  A    between atoms: _279  and  _280
REMARK  121  A    between atoms: _279  and  _282
REMARK  122  A    between atoms: _282  and  _283
REMARK  123  A    between atoms: _283  and  _284
REMARK  124  A    between atoms: _289  and  _291
REMARK  125  A    between atoms: _291  and  _292
REMARK  126  A    between atoms: _291  and  _294
REMARK  127  A    between atoms: _294  and  _295
REMARK                            x       y       z     vdW  Elec       q    Type
REMARK                         _______ _______ _______ _____ _____    ______ ____
ROOT
ATOM      1  CG  LYS A   1      23.308  38.295  18.290  0.00  0.00    -0.000 C 
ENDROOT
BRANCH   1   2
ATOM      2  CB  LYS A   1      21.955  38.181  19.015  0.00  0.00    +0.025 C 
BRANCH   2   3
ATOM      3  CA  LYS A   1      21.165  36.874  18.805  0.00  0.00    +0.133 C 
BRANCH   3   4
ATOM      4  N   LYS A   1      21.680  35.801  19.657  0.00  0.00    -0.239 NA
ATOM      5  H   LYS A   1      22.303  35.089  19.225  0.00  0.00    +0.142 HD
ENDBRANCH   3   4
BRANCH   3   6
ATOM      6  C   LYS A   1      21.239  36.423  17.344  0.00  0.00    +0.224 C 
ATOM      7  O   LYS A   1      21.958  35.478  17.028  0.00  0.00    -0.287 OA
ENDBRANCH   3   6
ENDBRANCH   2   3
ENDBRANCH   1   2
BRANCH   1   8
ATOM      8  CD  LYS A   1      24.401  37.412  18.901  0.00  0.00    -0.024 C 
BRANCH   8   9
ATOM      9  CE  LYS A   1      25.786  37.763  18.356  0.00  0.00    -0.086 C 
BRANCH   9  10
ATOM     10  NZ  LYS A   1      25.936  37.468  16.895  0.00  0.00    +0.380 N 
ATOM     11  HZ1 LYS A   1      25.780  36.453  16.730  0.00  0.00    -0.089 HD
ATOM     12  HZ2 LYS A   1      26.895  37.727  16.587  0.00  0.00    -0.089 HD
ATOM     13  HZ3 LYS A   1      25.237  38.019  16.358  0.00  0.00    -0.089 HD
ENDBRANCH   9  10
ENDBRANCH   8   9
ENDBRANCH   1   8
TORSDOF 7
REMARK  Name = ../refined-set-2016/3djq/3djq_pocket.pdb
REMARK  127 active torsions:
REMARK  status: ('A' for Active; 'I' for Inactive)
REMARK    1  A    between atoms: _1  and  _3
REMARK    2  A    between atoms: _3  and  _4
REMARK    3  A    between atoms: _3  and  _6
REMARK    4  A    between atoms: _6  and  _7
REMARK    5  A    between atoms: _7  and  _8
REMARK    6  A    between atoms: _10  and  _12
REMARK    7  A    between atoms: _12  and  _13
REMARK    8  A    between atoms: _12  and  _15
REMARK    9  A    between atoms: _15  and  _16
REMARK   10  A    between atoms: _16  and  _17
REMARK   11  A    between atoms: _19  and  _21
REMARK   12  A    between atoms: _21  and  _22
REMARK   13  A    between atoms: _21  and  _24
REMARK   14  A    between atoms: _24  and  _25
REMARK   15  A    between atoms: _25  and  _26
REMARK   16  A    between atoms: _26  and  _27
REMARK   17  A    between atoms: _27  and  _28
REMARK   18  A    between atoms: _32  and  _34
REMARK   19  A    between atoms: _34  and  _35
REMARK   20  A    between atoms: _34  and  _37
REMARK   21  A    between atoms: _37  and  _38
REMARK   22  A    between atoms: _38  and  _39
REMARK   23  A    between atoms: _39  and  _40
REMARK   24  A    between atoms: _40  and  _41
REMARK   25  A    between atoms: _46  and  _47
REMARK   26  A    between atoms: _52  and  _54
REMARK   27  A    between atoms: _54  and  _55
REMARK   28  A    between atoms: _54  and  _57
REMARK   29  A    between atoms: _60  and  _62
REMARK   30  A    between atoms: _62  and  _63
REMARK   31  A    between atoms: _62  and  _65
REMARK   32  A    between atoms: _65  and  _66
REMARK   33  A    between atoms: _71  and  _73
REMARK   34  A    between atoms: _73  and  _74
REMARK   35  A    between atoms: _73  and  _76
REMARK   36  A    between atoms: _76  and  _77
REMARK   37  A    between atoms: _80  and  _82
REMARK   38  A    between atoms: _82  and  _83
REMARK   39  A    between atoms: _82  and  _85
REMARK   40  A    between atoms: _85  and  _86
REMARK   41  A    between atoms: _92  and  _94
REMARK   42  A    between atoms: _94  and  _95
REMARK   43  A    between atoms: _94  and  _97
REMARK   44  A    between atoms: _97  and  _98
REMARK   45  A    between atoms: _98  and  _99
REMARK   46  A    between atoms: _99  and  _100
REMARK   47  A    between atoms: _100  and  _101
REMARK   48  A    between atoms: _105  and  _107
REMARK   49  A    between atoms: _107  and  _108
REMARK   50  A    between atoms: _107  and  _110
REMARK   51  A    between atoms: _110  and  _111
REMARK   52  A    between atoms: _116  and  _118
REMARK   53  A    between atoms: _118  and  _119
REMARK   54  A    between atoms: _118  and  _121
REMARK   55  A    between atoms: _121  and  _122
REMARK   56  A    between atoms: _125  and  _127
REMARK   57  A    between atoms: _127  and  _128
REMARK   58  A    between atoms: _127  and  _130
REMARK   59  A    between atoms: _130  and  _131
REMARK   60  A    between atoms: _134  and  _136
REMARK   61  A    between atoms: _136  and  _137
REMARK   62  A    between atoms: _136  and  _139
REMARK   63  A    between atoms: _139  and  _140
REMARK   64  A    between atoms: _143  and  _145
REMARK   65  A    between atoms: _145  and  _146
REMARK   66  A    between atoms: _145  and  _148
REMARK   67  A    between atoms: _150  and  _152
REMARK   68  A    between atoms: _152  and  _153
REMARK   69  A    between atoms: _152  and  _155
REMARK   70  A    between atoms: _155  and  _156
REMARK   71  A    between atoms: _156  and  _157
REMARK   72  A    between atoms: _157  and  _158
REMARK   73  A    between atoms: _167  and  _169
REMARK   74  A    between atoms: _169  and  _170
REMARK   75  A    between atoms: _169  and  _172
REMARK   76  A    between atoms: _172  and  _173
REMARK   77  A    between atoms: _173  and  _174
REMARK   78  A    between atoms: _174  and  _175
REMARK   79  A    between atoms: _175  and  _176
REMARK   80  A    between atoms: _180  and  _182
REMARK   81  A    between atoms: _182  and  _183
REMARK   82  A    between atoms: _182  and  _185
REMARK   83  A    between atoms: _185  and  _186
REMARK   84  A    between atoms: _189  and  _191
REMARK   85  A    between atoms: _191  and  _192
REMARK   86  A    between atoms: _191  and  _194
REMARK   87  A    between atoms: _197  and  _199
REMARK   88  A    between atoms: _199  and  _200
REMARK   89  A    between atoms: _199  and  _202
REMARK   90  A    between atoms: _202  and  _203
REMARK   91  A    between atoms: _208  and  _210
REMARK   92  A    between atoms: _210  and  _211
REMARK   93  A    between atoms: _210  and  _213
REMARK   94  A    between atoms: _213  and  _214
REMARK   95  A    between atoms: _220  and  _222
REMARK   96  A    between atoms: _222  and  _223
REMARK   97  A    between atoms: _222  and  _225
REMARK   98  A    between atoms: _225  and  _226
REMARK   99  A    between atoms: _229  and  _231
REMARK  100  A    between atoms: _231  and  _232
REMARK  101  A    between atoms: _235  and  _237
REMARK  102  A    between atoms: _237  and  _238
REMARK  103  A    between atoms: _237  and  _240
REMARK  104  A    between atoms: _240  and  _241
REMARK  105  A    between atoms: _243  and  _245
REMARK  106  A    between atoms: _245  and  _246
REMARK  107  A    between atoms: _245  and  _248
REMARK  108  A    between atoms: _252  and  _254
REMARK  109  A    between atoms: _254  and  _255
REMARK  110  A    between atoms: _254  and  _257
REMARK  111  A    between atoms: _257  and  _258
REMARK  112  A    between atoms: _258  and  _259
REMARK  113  A    between atoms: _259  and  _260
REMARK  114  A    between atoms: _260  and  _261
REMARK  115  A    between atoms: _265  and  _267
REMARK  116  A    between atoms: _267  and  _268
REMARK  117  A    between atoms: _267  and  _270
REMARK  118  A    between atoms: _270  and  _271
REMARK  119  A    between atoms: _277  and  _279
REMARK  120  A    between atoms: _279  and  _280
REMARK  121  A    between atoms: _279  and  _282
REMARK  122  A    between atoms: _282  and  _283
REMARK  123  A    between atoms: _283  and  _284
REMARK  124  A    between atoms: _289  and  _291
REMARK  125  A    between atoms: _291  and  _292
REMARK  126  A    between atoms: _291  and  _294
REMARK  127  A    between atoms: _294  and  _295
REMARK                            x       y       z     vdW  Elec       q    Type
REMARK                         _______ _______ _______ _____ _____    ______ ____
ROOT
ATOM      1  C   VAL A   3      25.610  38.346   7.673  0.00  0.00    +0.241 C 
ATOM      2  O   VAL A   3      26.514  38.385   8.506  0.00  0.00    -0.273 OA
ATOM      3  N   ASN A   4      25.489  37.354   6.789  0.00  0.00    -0.297 N 
ATOM      4  H   ASN A   4      24.661  37.329   6.160  0.00  0.00    +0.150 HD
ENDROOT
BRANCH   3   5
ATOM      5  CA  ASN A   4      26.499  36.300   6.687  0.00  0.00    +0.158 C 
BRANCH   5   6
ATOM      6  C   ASN A   4      26.526  35.694   5.300  0.00  0.00    +0.241 C 
ATOM      7  N   THR A   5      27.733  35.435   4.803  0.00  0.00    -0.295 N 
ATOM      8  H   THR A   5      28.565  35.654   5.387  0.00  0.00    +0.150 HD
ATOM      9  O   ASN A   4      25.472  35.451   4.711  0.00  0.00    -0.273 OA
BRANCH   7  10
ATOM     10  CA  THR A   5      27.947  34.860   3.481  0.00  0.00    +0.176 C 
BRANCH  10  11
ATOM     11  C   THR A   5      28.517  33.453   3.576  0.00  0.00    +0.243 C 
ATOM     12  O   THR A   5      29.466  33.199   4.334  0.00  0.00    -0.273 OA
ATOM     13  N   PHE A   6      27.945  32.552   2.783  0.00  0.00    -0.298 N 
ATOM     14  H   PHE A   6      27.081  32.816   2.267  0.00  0.00    +0.150 HD
BRANCH  13  15
ATOM     15  CA  PHE A   6      28.482  31.211   2.610  0.00  0.00    +0.141 C 
BRANCH  15  16
ATOM     16  C   PHE A   6      29.103  31.070   1.228  0.00  0.00    +0.227 C 
ATOM     17  O   PHE A   6      28.576  31.583   0.241  0.00  0.00    -0.286 OA
ENDBRANCH  15  16
BRANCH  15  18
ATOM     18  CB  PHE A   6      27.388  30.150   2.787  0.00  0.00    +0.054 C 
BRANCH  18  19
ATOM     19  CG  PHE A   6      26.844  30.087   4.181  0.00  0.00    -0.020 A 
ATOM     20  CD2 PHE A   6      27.563  29.429   5.180  0.00  0.00    -0.004 A 
ATOM     21  CE2 PHE A   6      27.088  29.379   6.489  0.00  0.00    -0.000 A 
ATOM     22  CZ  PHE A   6      25.885  30.005   6.814  0.00  0.00    -0.000 A 
ATOM     23  CE1 PHE A   6      25.158  30.686   5.821  0.00  0.00    -0.000 A 
ATOM     24  CD1 PHE A   6      25.648  30.730   4.513  0.00  0.00    -0.004 A 
ENDBRANCH  18  19
ENDBRANCH  15  18
ENDBRANCH  13  15
ENDBRANCH  10  11
BRANCH  10  25
ATOM     25  CB  THR A   5      28.915  35.737   2.679  0.00  0.00    +0.137 C 
ATOM     26  CG2 THR A   5      29.080  35.221   1.254  0.00  0.00    +0.034 C 
BRANCH  25  27
ATOM     27  OG1 THR A   5      28.401  37.070   2.641  0.00  0.00    -0.382 OA
ATOM     28  HG1 THR A   5      27.511  37.067   2.207  0.00  0.00    +0.210 HD
ENDBRANCH  25  27
ENDBRANCH  10  25
ENDBRANCH   7  10
ENDBRANCH   5   6
BRANCH   5  29
ATOM     29  CB  ASN A   4      26.261  35.197   7.719  0.00  0.00    +0.114 C 
BRANCH  29  30
ATOM     30  CG  ASN A   4      27.438  34.250   7.835  0.00  0.00    +0.222 C 
ATOM     31  OD1 ASN A   4      28.482  34.613   8.372  0.00  0.00    -0.275 OA
ATOM     32  ND2 ASN A   4      27.278  33.037   7.335  0.00  0.00    -0.329 N 
ATOM     33 HD21 ASN A   4      28.054  32.346   7.387  0.00  0.00    +0.145 HD
ATOM     34 HD22 ASN A   4      26.376  32.773   6.889  0.00  0.00    +0.145 HD
ENDBRANCH  29  30
ENDBRANCH   5  29
ENDBRANCH   3   5
BRANCH   1  35
ATOM     35  CA  VAL A   3      24.556  39.454   7.632  0.00  0.00    +0.149 C 
BRANCH  35  37
ATOM     36  C   PRO A   2      22.785  39.929   9.271  0.00  0.00    +0.241 C 
ATOM     37  N   VAL A   3      24.066  39.685   8.995  0.00  0.00    -0.297 N 
ATOM     38  H   VAL A   3      24.748  39.657   9.780  0.00  0.00    +0.150 HD
ATOM     39  O   PRO A   2      21.899  39.921   8.418  0.00  0.00    -0.273 OA
BRANCH  36  45
ATOM     40  C   LYS A   1      23.028  38.189  11.884  0.00  0.00    +0.241 C 
ATOM     41  N   PRO A   2      23.208  39.513  11.730  0.00  0.00    -0.272 N 
ATOM     42  CD  PRO A   2      24.104  40.406  12.489  0.00  0.00    +0.094 C 
ATOM     43  CG  PRO A   2      23.972  41.722  11.782  0.00  0.00    +0.024 C 
ATOM     44  CB  PRO A   2      22.680  41.710  11.068  0.00  0.00    +0.031 C 
ATOM     45  CA  PRO A   2      22.422  40.237  10.728  0.00  0.00    +0.152 C 
ATOM     46  O   LYS A   1      22.284  37.535  11.155  0.00  0.00    -0.273 OA
BRANCH  40  47
ATOM     47  CA  LYS A   1      23.740  37.515  13.060  0.00  0.00    +0.145 C 
BRANCH  47  48
ATOM     48  N   LYS A   1      22.718  36.851  13.863  0.00  0.00    -0.238 NA
ATOM     49  H   LYS A   1      22.761  35.823  14.013  0.00  0.00    +0.142 HD
ENDBRANCH  47  48
BRANCH  47  50
ATOM     50  CB  LYS A   1      24.808  36.535  12.575  0.00  0.00    +0.026 C 
BRANCH  50  51
ATOM     51  CG  LYS A   1      26.021  37.219  11.954  0.00  0.00    -0.000 C 
BRANCH  51  52
ATOM     52  CD  LYS A   1      27.120  36.233  11.631  0.00  0.00    -0.024 C 
BRANCH  52  53
ATOM     53  CE  LYS A   1      28.318  36.921  10.984  0.00  0.00    -0.086 C 
BRANCH  53  54
ATOM     54  NZ  LYS A   1      29.349  35.921  10.545  0.00  0.00    +0.380 N 
ATOM     55  HZ1 LYS A   1      29.681  35.383  11.370  0.00  0.00    -0.089 HD
ATOM     56  HZ2 LYS A   1      30.151  36.420  10.109  0.00  0.00    -0.089 HD
ATOM     57  HZ3 LYS A   1      28.926  35.270   9.853  0.00  0.00    -0.089 HD
ENDBRANCH  53  54
ENDBRANCH  52  53
ENDBRANCH  51  52
ENDBRANCH  50  51
ENDBRANCH  47  50
ENDBRANCH  40  47
ENDBRANCH  36  45
ENDBRANCH  35  37
BRANCH  35  58
ATOM     58  CB  VAL A   3      25.190  40.747   7.003  0.00  0.00    +0.027 C 
ATOM     59  CG2 VAL A   3      24.212  41.917   7.030  0.00  0.00    +0.002 C 
ATOM     60  CG1 VAL A   3      25.663  40.491   5.565  0.00  0.00    +0.002 C 
ENDBRANCH  35  58
ENDBRANCH   1  35
TORSDOF 23
REMARK  Name = ../refined-set-2016/3djq/3djq_pocket.pdb
REMARK  127 active torsions:
REMARK  status: ('A' for Active; 'I' for Inactive)
REMARK    1  A    between atoms: _1  and  _3
REMARK    2  A    between atoms: _3  and  _4
REMARK    3  A    between atoms: _3  and  _6
REMARK    4  A    between atoms: _6  and  _7
REMARK    5  A    between atoms: _7  and  _8
REMARK    6  A    between atoms: _10  and  _12
REMARK    7  A    between atoms: _12  and  _13
REMARK    8  A    between atoms: _12  and  _15
REMARK    9  A    between atoms: _15  and  _16
REMARK   10  A    between atoms: _16  and  _17
REMARK   11  A    between atoms: _19  and  _21
REMARK   12  A    between atoms: _21  and  _22
REMARK   13  A    between atoms: _21  and  _24
REMARK   14  A    between atoms: _24  and  _25
REMARK   15  A    between atoms: _25  and  _26
REMARK   16  A    between atoms: _26  and  _27
REMARK   17  A    between atoms: _27  and  _28
REMARK   18  A    between atoms: _32  and  _34
REMARK   19  A    between atoms: _34  and  _35
REMARK   20  A    between atoms: _34  and  _37
REMARK   21  A    between atoms: _37  and  _38
REMARK   22  A    between atoms: _38  and  _39
REMARK   23  A    between atoms: _39  and  _40
REMARK   24  A    between atoms: _40  and  _41
REMARK   25  A    between atoms: _46  and  _47
REMARK   26  A    between atoms: _52  and  _54
REMARK   27  A    between atoms: _54  and  _55
REMARK   28  A    between atoms: _54  and  _57
REMARK   29  A    between atoms: _60  and  _62
REMARK   30  A    between atoms: _62  and  _63
REMARK   31  A    between atoms: _62  and  _65
REMARK   32  A    between atoms: _65  and  _66
REMARK   33  A    between atoms: _71  and  _73
REMARK   34  A    between atoms: _73  and  _74
REMARK   35  A    between atoms: _73  and  _76
REMARK   36  A    between atoms: _76  and  _77
REMARK   37  A    between atoms: _80  and  _82
REMARK   38  A    between atoms: _82  and  _83
REMARK   39  A    between atoms: _82  and  _85
REMARK   40  A    between atoms: _85  and  _86
REMARK   41  A    between atoms: _92  and  _94
REMARK   42  A    between atoms: _94  and  _95
REMARK   43  A    between atoms: _94  and  _97
REMARK   44  A    between atoms: _97  and  _98
REMARK   45  A    between atoms: _98  and  _99
REMARK   46  A    between atoms: _99  and  _100
REMARK   47  A    between atoms: _100  and  _101
REMARK   48  A    between atoms: _105  and  _107
REMARK   49  A    between atoms: _107  and  _108
REMARK   50  A    between atoms: _107  and  _110
REMARK   51  A    between atoms: _110  and  _111
REMARK   52  A    between atoms: _116  and  _118
REMARK   53  A    between atoms: _118  and  _119
REMARK   54  A    between atoms: _118  and  _121
REMARK   55  A    between atoms: _121  and  _122
REMARK   56  A    between atoms: _125  and  _127
REMARK   57  A    between atoms: _127  and  _128
REMARK   58  A    between atoms: _127  and  _130
REMARK   59  A    between atoms: _130  and  _131
REMARK   60  A    between atoms: _134  and  _136
REMARK   61  A    between atoms: _136  and  _137
REMARK   62  A    between atoms: _136  and  _139
REMARK   63  A    between atoms: _139  and  _140
REMARK   64  A    between atoms: _143  and  _145
REMARK   65  A    between atoms: _145  and  _146
REMARK   66  A    between atoms: _145  and  _148
REMARK   67  A    between atoms: _150  and  _152
REMARK   68  A    between atoms: _152  and  _153
REMARK   69  A    between atoms: _152  and  _155
REMARK   70  A    between atoms: _155  and  _156
REMARK   71  A    between atoms: _156  and  _157
REMARK   72  A    between atoms: _157  and  _158
REMARK   73  A    between atoms: _167  and  _169
REMARK   74  A    between atoms: _169  and  _170
REMARK   75  A    between atoms: _169  and  _172
REMARK   76  A    between atoms: _172  and  _173
REMARK   77  A    between atoms: _173  and  _174
REMARK   78  A    between atoms: _174  and  _175
REMARK   79  A    between atoms: _175  and  _176
REMARK   80  A    between atoms: _180  and  _182
REMARK   81  A    between atoms: _182  and  _183
REMARK   82  A    between atoms: _182  and  _185
REMARK   83  A    between atoms: _185  and  _186
REMARK   84  A    between atoms: _189  and  _191
REMARK   85  A    between atoms: _191  and  _192
REMARK   86  A    between atoms: _191  and  _194
REMARK   87  A    between atoms: _197  and  _199
REMARK   88  A    between atoms: _199  and  _200
REMARK   89  A    between atoms: _199  and  _202
REMARK   90  A    between atoms: _202  and  _203
REMARK   91  A    between atoms: _208  and  _210
REMARK   92  A    between atoms: _210  and  _211
REMARK   93  A    between atoms: _210  and  _213
REMARK   94  A    between atoms: _213  and  _214
REMARK   95  A    between atoms: _220  and  _222
REMARK   96  A    between atoms: _222  and  _223
REMARK   97  A    between atoms: _222  and  _225
REMARK   98  A    between atoms: _225  and  _226
REMARK   99  A    between atoms: _229  and  _231
REMARK  100  A    between atoms: _231  and  _232
REMARK  101  A    between atoms: _235  and  _237
REMARK  102  A    between atoms: _237  and  _238
REMARK  103  A    between atoms: _237  and  _240
REMARK  104  A    between atoms: _240  and  _241
REMARK  105  A    between atoms: _243  and  _245
REMARK  106  A    between atoms: _245  and  _246
REMARK  107  A    between atoms: _245  and  _248
REMARK  108  A    between atoms: _252  and  _254
REMARK  109  A    between atoms: _254  and  _255
REMARK  110  A    between atoms: _254  and  _257
REMARK  111  A    between atoms: _257  and  _258
REMARK  112  A    between atoms: _258  and  _259
REMARK  113  A    between atoms: _259  and  _260
REMARK  114  A    between atoms: _260  and  _261
REMARK  115  A    between atoms: _265  and  _267
REMARK  116  A    between atoms: _267  and  _268
REMARK  117  A    between atoms: _267  and  _270
REMARK  118  A    between atoms: _270  and  _271
REMARK  119  A    between atoms: _277  and  _279
REMARK  120  A    between atoms: _279  and  _280
REMARK  121  A    between atoms: _279  and  _282
REMARK  122  A    between atoms: _282  and  _283
REMARK  123  A    between atoms: _283  and  _284
REMARK  124  A    between atoms: _289  and  _291
REMARK  125  A    between atoms: _291  and  _292
REMARK  126  A    between atoms: _291  and  _294
REMARK  127  A    between atoms: _294  and  _295
REMARK                            x       y       z     vdW  Elec       q    Type
REMARK                         _______ _______ _______ _____ _____    ______ ____
ROOT
ATOM      1  C   LYS A   1      37.625  47.915   7.098  0.00  0.00    +0.238 C 
ATOM      2  N   ASN A   2      38.092  47.131   8.075  0.00  0.00    -0.298 N 
ATOM      3  H   ASN A   2      38.241  46.121   7.876  0.00  0.00    +0.150 HD
ATOM      4  O   LYS A   1      37.496  49.132   7.220  0.00  0.00    -0.274 OA
ENDROOT
BRANCH   1   5
ATOM      5  CA  LYS A   1      37.262  47.225   5.774  0.00  0.00    +0.145 C 
BRANCH   5   6
ATOM      6  N   LYS A   1      38.184  46.124   5.454  0.00  0.00    -0.238 NA
ATOM      7  H   LYS A   1      37.792  45.189   5.221  0.00  0.00    +0.142 HD
ENDBRANCH   5   6
BRANCH   5   8
ATOM      8  CB  LYS A   1      35.820  46.719   5.862  0.00  0.00    +0.026 C 
BRANCH   8   9
ATOM      9  CG  LYS A   1      35.120  46.379   4.550  0.00  0.00    -0.000 C 
BRANCH   9  10
ATOM     10  CD  LYS A   1      33.765  45.742   4.868  0.00  0.00    -0.024 C 
BRANCH  10  11
ATOM     11  CE  LYS A   1      32.877  45.570   3.638  0.00  0.00    -0.086 C 
BRANCH  11  12
ATOM     12  NZ  LYS A   1      31.843  44.486   3.834  0.00  0.00    +0.380 N 
ATOM     13  HZ1 LYS A   1      31.236  44.730   4.642  0.00  0.00    -0.089 HD
ATOM     14  HZ2 LYS A   1      32.322  43.581   4.019  0.00  0.00    -0.089 HD
ATOM     15  HZ3 LYS A   1      31.262  44.403   2.975  0.00  0.00    -0.089 HD
ENDBRANCH  11  12
ENDBRANCH  10  11
ENDBRANCH   9  10
ENDBRANCH   8   9
ENDBRANCH   5   8
ENDBRANCH   1   5
BRANCH   2  16
ATOM     16  CA  ASN A   2      38.402  47.637   9.414  0.00  0.00    +0.146 C 
BRANCH  16  17
ATOM     17  C   ASN A   2      39.830  48.153   9.586  0.00  0.00    +0.227 C 
ATOM     18  O   ASN A   2      40.260  48.419  10.706  0.00  0.00    -0.286 OA
ENDBRANCH  16  17
BRANCH  16  19
ATOM     19  CB  ASN A   2      38.108  46.569  10.478  0.00  0.00    +0.112 C 
BRANCH  19  20
ATOM     20  CG  ASN A   2      39.105  45.400  10.456  0.00  0.00    +0.222 C 
ATOM     21  ND2 ASN A   2      38.948  44.484  11.401  0.00  0.00    -0.329 N 
ATOM     22 HD21 ASN A   2      38.189  44.588  12.105  0.00  0.00    +0.145 HD
ATOM     23 HD22 ASN A   2      39.583  43.662  11.439  0.00  0.00    +0.145 HD
ATOM     24  OD1 ASN A   2      39.990  45.319   9.601  0.00  0.00    -0.275 OA
ENDBRANCH  19  20
ENDBRANCH  16  19
ENDBRANCH   2  16
TORSDOF 11
REMARK  Name = ../refined-set-2016/3djq/3djq_pocket.pdb
REMARK  127 active torsions:
REMARK  status: ('A' for Active; 'I' for Inactive)
REMARK    1  A    between atoms: _1  and  _3
REMARK    2  A    between atoms: _3  and  _4
REMARK    3  A    between atoms: _3  and  _6
REMARK    4  A    between atoms: _6  and  _7
REMARK    5  A    between atoms: _7  and  _8
REMARK    6  A    between atoms: _10  and  _12
REMARK    7  A    between atoms: _12  and  _13
REMARK    8  A    between atoms: _12  and  _15
REMARK    9  A    between atoms: _15  and  _16
REMARK   10  A    between atoms: _16  and  _17
REMARK   11  A    between atoms: _19  and  _21
REMARK   12  A    between atoms: _21  and  _22
REMARK   13  A    between atoms: _21  and  _24
REMARK   14  A    between atoms: _24  and  _25
REMARK   15  A    between atoms: _25  and  _26
REMARK   16  A    between atoms: _26  and  _27
REMARK   17  A    between atoms: _27  and  _28
REMARK   18  A    between atoms: _32  and  _34
REMARK   19  A    between atoms: _34  and  _35
REMARK   20  A    between atoms: _34  and  _37
REMARK   21  A    between atoms: _37  and  _38
REMARK   22  A    between atoms: _38  and  _39
REMARK   23  A    between atoms: _39  and  _40
REMARK   24  A    between atoms: _40  and  _41
REMARK   25  A    between atoms: _46  and  _47
REMARK   26  A    between atoms: _52  and  _54
REMARK   27  A    between atoms: _54  and  _55
REMARK   28  A    between atoms: _54  and  _57
REMARK   29  A    between atoms: _60  and  _62
REMARK   30  A    between atoms: _62  and  _63
REMARK   31  A    between atoms: _62  and  _65
REMARK   32  A    between atoms: _65  and  _66
REMARK   33  A    between atoms: _71  and  _73
REMARK   34  A    between atoms: _73  and  _74
REMARK   35  A    between atoms: _73  and  _76
REMARK   36  A    between atoms: _76  and  _77
REMARK   37  A    between atoms: _80  and  _82
REMARK   38  A    between atoms: _82  and  _83
REMARK   39  A    between atoms: _82  and  _85
REMARK   40  A    between atoms: _85  and  _86
REMARK   41  A    between atoms: _92  and  _94
REMARK   42  A    between atoms: _94  and  _95
REMARK   43  A    between atoms: _94  and  _97
REMARK   44  A    between atoms: _97  and  _98
REMARK   45  A    between atoms: _98  and  _99
REMARK   46  A    between atoms: _99  and  _100
REMARK   47  A    between atoms: _100  and  _101
REMARK   48  A    between atoms: _105  and  _107
REMARK   49  A    between atoms: _107  and  _108
REMARK   50  A    between atoms: _107  and  _110
REMARK   51  A    between atoms: _110  and  _111
REMARK   52  A    between atoms: _116  and  _118
REMARK   53  A    between atoms: _118  and  _119
REMARK   54  A    between atoms: _118  and  _121
REMARK   55  A    between atoms: _121  and  _122
REMARK   56  A    between atoms: _125  and  _127
REMARK   57  A    between atoms: _127  and  _128
REMARK   58  A    between atoms: _127  and  _130
REMARK   59  A    between atoms: _130  and  _131
REMARK   60  A    between atoms: _134  and  _136
REMARK   61  A    between atoms: _136  and  _137
REMARK   62  A    between atoms: _136  and  _139
REMARK   63  A    between atoms: _139  and  _140
REMARK   64  A    between atoms: _143  and  _145
REMARK   65  A    between atoms: _145  and  _146
REMARK   66  A    between atoms: _145  and  _148
REMARK   67  A    between atoms: _150  and  _152
REMARK   68  A    between atoms: _152  and  _153
REMARK   69  A    between atoms: _152  and  _155
REMARK   70  A    between atoms: _155  and  _156
REMARK   71  A    between atoms: _156  and  _157
REMARK   72  A    between atoms: _157  and  _158
REMARK   73  A    between atoms: _167  and  _169
REMARK   74  A    between atoms: _169  and  _170
REMARK   75  A    between atoms: _169  and  _172
REMARK   76  A    between atoms: _172  and  _173
REMARK   77  A    between atoms: _173  and  _174
REMARK   78  A    between atoms: _174  and  _175
REMARK   79  A    between atoms: _175  and  _176
REMARK   80  A    between atoms: _180  and  _182
REMARK   81  A    between atoms: _182  and  _183
REMARK   82  A    between atoms: _182  and  _185
REMARK   83  A    between atoms: _185  and  _186
REMARK   84  A    between atoms: _189  and  _191
REMARK   85  A    between atoms: _191  and  _192
REMARK   86  A    between atoms: _191  and  _194
REMARK   87  A    between atoms: _197  and  _199
REMARK   88  A    between atoms: _199  and  _200
REMARK   89  A    between atoms: _199  and  _202
REMARK   90  A    between atoms: _202  and  _203
REMARK   91  A    between atoms: _208  and  _210
REMARK   92  A    between atoms: _210  and  _211
REMARK   93  A    between atoms: _210  and  _213
REMARK   94  A    between atoms: _213  and  _214
REMARK   95  A    between atoms: _220  and  _222
REMARK   96  A    between atoms: _222  and  _223
REMARK   97  A    between atoms: _222  and  _225
REMARK   98  A    between atoms: _225  and  _226
REMARK   99  A    between atoms: _229  and  _231
REMARK  100  A    between atoms: _231  and  _232
REMARK  101  A    between atoms: _235  and  _237
REMARK  102  A    between atoms: _237  and  _238
REMARK  103  A    between atoms: _237  and  _240
REMARK  104  A    between atoms: _240  and  _241
REMARK  105  A    between atoms: _243  and  _245
REMARK  106  A    between atoms: _245  and  _246
REMARK  107  A    between atoms: _245  and  _248
REMARK  108  A    between atoms: _252  and  _254
REMARK  109  A    between atoms: _254  and  _255
REMARK  110  A    between atoms: _254  and  _257
REMARK  111  A    between atoms: _257  and  _258
REMARK  112  A    between atoms: _258  and  _259
REMARK  113  A    between atoms: _259  and  _260
REMARK  114  A    between atoms: _260  and  _261
REMARK  115  A    between atoms: _265  and  _267
REMARK  116  A    between atoms: _267  and  _268
REMARK  117  A    between atoms: _267  and  _270
REMARK  118  A    between atoms: _270  and  _271
REMARK  119  A    between atoms: _277  and  _279
REMARK  120  A    between atoms: _279  and  _280
REMARK  121  A    between atoms: _279  and  _282
REMARK  122  A    between atoms: _282  and  _283
REMARK  123  A    between atoms: _283  and  _284
REMARK  124  A    between atoms: _289  and  _291
REMARK  125  A    between atoms: _291  and  _292
REMARK  126  A    between atoms: _291  and  _294
REMARK  127  A    between atoms: _294  and  _295
REMARK                            x       y       z     vdW  Elec       q    Type
REMARK                         _______ _______ _______ _____ _____    ______ ____
ROOT
ATOM      1  C   ASP A   3      23.014  35.680   1.947  0.00  0.00    +0.241 C 
ATOM      2  N   CYS A   4      23.155  35.754   3.267  0.00  0.00    -0.296 N 
ATOM      3  H   CYS A   4      24.104  35.922   3.657  0.00  0.00    +0.150 HD
ATOM      4  O   ASP A   3      21.950  35.391   1.382  0.00  0.00    -0.273 OA
ENDROOT
BRANCH   2   5
ATOM      5  CA  CYS A   4      22.043  35.610   4.186  0.00  0.00    +0.160 C 
BRANCH   5   6
ATOM      6  C   CYS A   4      21.867  36.935   4.909  0.00  0.00    +0.242 C 
ATOM      7  O   CYS A   4      22.774  37.384   5.596  0.00  0.00    -0.273 OA
ATOM      8  N   ARG A   5      20.709  37.564   4.729  0.00  0.00    -0.298 N 
ATOM      9  H   ARG A   5      19.982  37.131   4.124  0.00  0.00    +0.150 HD
BRANCH   8  10
ATOM     10  CA  ARG A   5      20.437  38.854   5.366  0.00  0.00    +0.137 C 
BRANCH  10  11
ATOM     11  C   ARG A   5      19.128  38.781   6.119  0.00  0.00    +0.227 C 
ATOM     12  O   ARG A   5      18.123  38.304   5.584  0.00  0.00    -0.286 OA
ENDBRANCH  10  11
BRANCH  10  13
ATOM     13  CB  ARG A   5      20.400  39.997   4.340  0.00  0.00    +0.031 C 
BRANCH  13  14
ATOM     14  CG  ARG A   5      21.536  39.954   3.332  0.00  0.00    +0.045 C 
BRANCH  14  15
ATOM     15  CD  ARG A   5      21.972  41.326   2.862  0.00  0.00    +0.174 C 
BRANCH  15  16
ATOM     16  NE  ARG A   5      23.218  41.209   2.109  0.00  0.00    -0.265 N 
ATOM     17  CZ  ARG A   5      24.177  42.128   2.069  0.00  0.00    +0.342 C 
ATOM     18  NH2 ARG A   5      24.048  43.272   2.732  0.00  0.00    -0.292 N 
ATOM     19 HH21 ARG A   5      23.190  43.456   3.290  0.00  0.00    +0.255 HD
ATOM     20 HH22 ARG A   5      24.805  43.984   2.693  0.00  0.00    +0.255 HD
ATOM     21  NH1 ARG A   5      25.271  41.898   1.352  0.00  0.00    -0.292 N 
ATOM     22 HH11 ARG A   5      26.027  42.611   1.314  0.00  0.00    +0.255 HD
ATOM     23 HH12 ARG A   5      25.371  41.005   0.828  0.00  0.00    +0.255 HD
ATOM     24  HE  ARG A   5      23.366  40.338   1.561  0.00  0.00    +0.259 HD
ENDBRANCH  15  16
ENDBRANCH  14  15
ENDBRANCH  13  14
ENDBRANCH  10  13
ENDBRANCH   8  10
ENDBRANCH   5   6
BRANCH   5  25
ATOM     25  CB  CYS A   4      22.324  34.496   5.199  0.00  0.00    +0.098 C 
ATOM     26  SG  CYS A   4      22.559  32.874   4.445  0.00  0.00    -0.080 S 
ENDBRANCH   5  25
ENDBRANCH   2   5
BRANCH   1  27
ATOM     27  CA  ASP A   3      24.264  35.978   1.138  0.00  0.00    +0.160 C 
BRANCH  27  30
ATOM     28  C   THR A   2      25.168  33.889   0.239  0.00  0.00    +0.243 C 
ATOM     29  O   THR A   2      25.902  33.689   1.204  0.00  0.00    -0.273 OA
ATOM     30  N   ASP A   3      24.436  34.989   0.080  0.00  0.00    -0.296 N 
ATOM     31  H   ASP A   3      23.968  35.150  -0.835  0.00  0.00    +0.150 HD
BRANCH  28  32
ATOM     32  CA  THR A   2      25.089  32.872  -0.878  0.00  0.00    +0.176 C 
BRANCH  32  34
ATOM     33  C   ILE A   1      26.821  32.740  -2.581  0.00  0.00    +0.238 C 
ATOM     34  N   THR A   2      26.440  32.592  -1.315  0.00  0.00    -0.295 N 
ATOM     35  H   THR A   2      27.136  32.264  -0.616  0.00  0.00    +0.150 HD
ATOM     36  O   ILE A   1      26.049  32.999  -3.513  0.00  0.00    -0.274 OA
BRANCH  33  37
ATOM     37  CA  ILE A   1      28.301  32.559  -2.836  0.00  0.00    +0.145 C 
BRANCH  37  38
ATOM     38  N   ILE A   1      28.560  32.264  -4.241  0.00  0.00    -0.238 NA
ATOM     39  H   ILE A   1      28.116  32.854  -4.974  0.00  0.00    +0.142 HD
ENDBRANCH  37  38
BRANCH  37  40
ATOM     40  CB  ILE A   1      29.103  33.804  -2.324  0.00  0.00    +0.025 C 
ATOM     41  CG2 ILE A   1      30.613  33.585  -2.506  0.00  0.00    +0.002 C 
BRANCH  40  42
ATOM     42  CG1 ILE A   1      28.605  35.109  -2.957  0.00  0.00    +0.002 C 
ATOM     43  CD1 ILE A   1      29.371  36.334  -2.495  0.00  0.00    +0.000 C 
ENDBRANCH  40  42
ENDBRANCH  37  40
ENDBRANCH  33  37
ENDBRANCH  32  34
BRANCH  32  44
ATOM     44  CB  THR A   2      24.397  31.585  -0.376  0.00  0.00    +0.137 C 
ATOM     45  CG2 THR A   2      23.028  31.892   0.215  0.00  0.00    +0.034 C 
BRANCH  44  46
ATOM     46  OG1 THR A   2      24.223  30.697  -1.477  0.00  0.00    -0.382 OA
ATOM     47  HG1 THR A   2      25.107  30.474  -1.863  0.00  0.00    +0.210 HD
ENDBRANCH  44  46
ENDBRANCH  32  44
ENDBRANCH  28  32
ENDBRANCH  27  30
BRANCH  27  48
ATOM     48  CB  ASP A   3      24.154  37.388   0.552  0.00  0.00    +0.143 C 
BRANCH  48  49
ATOM     49  CG  ASP A   3      25.474  37.915   0.021  0.00  0.00    +0.367 C 
ATOM     50  OD2 ASP A   3      26.539  37.609   0.599  0.00  0.00    -0.246 OA
ATOM     51  OD1 ASP A   3      25.435  38.671  -0.974  0.00  0.00    -0.246 OA
ENDBRANCH  48  49
ENDBRANCH  27  48
ENDBRANCH   1  27
TORSDOF 21
REMARK  Name = ../refined-set-2016/3djq/3djq_pocket.pdb
REMARK  127 active torsions:
REMARK  status: ('A' for Active; 'I' for Inactive)
REMARK    1  A    between atoms: _1  and  _3
REMARK    2  A    between atoms: _3  and  _4
REMARK    3  A    between atoms: _3  and  _6
REMARK    4  A    between atoms: _6  and  _7
REMARK    5  A    between atoms: _7  and  _8
REMARK    6  A    between atoms: _10  and  _12
REMARK    7  A    between atoms: _12  and  _13
REMARK    8  A    between atoms: _12  and  _15
REMARK    9  A    between atoms: _15  and  _16
REMARK   10  A    between atoms: _16  and  _17
REMARK   11  A    between atoms: _19  and  _21
REMARK   12  A    between atoms: _21  and  _22
REMARK   13  A    between atoms: _21  and  _24
REMARK   14  A    between atoms: _24  and  _25
REMARK   15  A    between atoms: _25  and  _26
REMARK   16  A    between atoms: _26  and  _27
REMARK   17  A    between atoms: _27  and  _28
REMARK   18  A    between atoms: _32  and  _34
REMARK   19  A    between atoms: _34  and  _35
REMARK   20  A    between atoms: _34  and  _37
REMARK   21  A    between atoms: _37  and  _38
REMARK   22  A    between atoms: _38  and  _39
REMARK   23  A    between atoms: _39  and  _40
REMARK   24  A    between atoms: _40  and  _41
REMARK   25  A    between atoms: _46  and  _47
REMARK   26  A    between atoms: _52  and  _54
REMARK   27  A    between atoms: _54  and  _55
REMARK   28  A    between atoms: _54  and  _57
REMARK   29  A    between atoms: _60  and  _62
REMARK   30  A    between atoms: _62  and  _63
REMARK   31  A    between atoms: _62  and  _65
REMARK   32  A    between atoms: _65  and  _66
REMARK   33  A    between atoms: _71  and  _73
REMARK   34  A    between atoms: _73  and  _74
REMARK   35  A    between atoms: _73  and  _76
REMARK   36  A    between atoms: _76  and  _77
REMARK   37  A    between atoms: _80  and  _82
REMARK   38  A    between atoms: _82  and  _83
REMARK   39  A    between atoms: _82  and  _85
REMARK   40  A    between atoms: _85  and  _86
REMARK   41  A    between atoms: _92  and  _94
REMARK   42  A    between atoms: _94  and  _95
REMARK   43  A    between atoms: _94  and  _97
REMARK   44  A    between atoms: _97  and  _98
REMARK   45  A    between atoms: _98  and  _99
REMARK   46  A    between atoms: _99  and  _100
REMARK   47  A    between atoms: _100  and  _101
REMARK   48  A    between atoms: _105  and  _107
REMARK   49  A    between atoms: _107  and  _108
REMARK   50  A    between atoms: _107  and  _110
REMARK   51  A    between atoms: _110  and  _111
REMARK   52  A    between atoms: _116  and  _118
REMARK   53  A    between atoms: _118  and  _119
REMARK   54  A    between atoms: _118  and  _121
REMARK   55  A    between atoms: _121  and  _122
REMARK   56  A    between atoms: _125  and  _127
REMARK   57  A    between atoms: _127  and  _128
REMARK   58  A    between atoms: _127  and  _130
REMARK   59  A    between atoms: _130  and  _131
REMARK   60  A    between atoms: _134  and  _136
REMARK   61  A    between atoms: _136  and  _137
REMARK   62  A    between atoms: _136  and  _139
REMARK   63  A    between atoms: _139  and  _140
REMARK   64  A    between atoms: _143  and  _145
REMARK   65  A    between atoms: _145  and  _146
REMARK   66  A    between atoms: _145  and  _148
REMARK   67  A    between atoms: _150  and  _152
REMARK   68  A    between atoms: _152  and  _153
REMARK   69  A    between atoms: _152  and  _155
REMARK   70  A    between atoms: _155  and  _156
REMARK   71  A    between atoms: _156  and  _157
REMARK   72  A    between atoms: _157  and  _158
REMARK   73  A    between atoms: _167  and  _169
REMARK   74  A    between atoms: _169  and  _170
REMARK   75  A    between atoms: _169  and  _172
REMARK   76  A    between atoms: _172  and  _173
REMARK   77  A    between atoms: _173  and  _174
REMARK   78  A    between atoms: _174  and  _175
REMARK   79  A    between atoms: _175  and  _176
REMARK   80  A    between atoms: _180  and  _182
REMARK   81  A    between atoms: _182  and  _183
REMARK   82  A    between atoms: _182  and  _185
REMARK   83  A    between atoms: _185  and  _186
REMARK   84  A    between atoms: _189  and  _191
REMARK   85  A    between atoms: _191  and  _192
REMARK   86  A    between atoms: _191  and  _194
REMARK   87  A    between atoms: _197  and  _199
REMARK   88  A    between atoms: _199  and  _200
REMARK   89  A    between atoms: _199  and  _202
REMARK   90  A    between atoms: _202  and  _203
REMARK   91  A    between atoms: _208  and  _210
REMARK   92  A    between atoms: _210  and  _211
REMARK   93  A    between atoms: _210  and  _213
REMARK   94  A    between atoms: _213  and  _214
REMARK   95  A    between atoms: _220  and  _222
REMARK   96  A    between atoms: _222  and  _223
REMARK   97  A    between atoms: _222  and  _225
REMARK   98  A    between atoms: _225  and  _226
REMARK   99  A    between atoms: _229  and  _231
REMARK  100  A    between atoms: _231  and  _232
REMARK  101  A    between atoms: _235  and  _237
REMARK  102  A    between atoms: _237  and  _238
REMARK  103  A    between atoms: _237  and  _240
REMARK  104  A    between atoms: _240  and  _241
REMARK  105  A    between atoms: _243  and  _245
REMARK  106  A    between atoms: _245  and  _246
REMARK  107  A    between atoms: _245  and  _248
REMARK  108  A    between atoms: _252  and  _254
REMARK  109  A    between atoms: _254  and  _255
REMARK  110  A    between atoms: _254  and  _257
REMARK  111  A    between atoms: _257  and  _258
REMARK  112  A    between atoms: _258  and  _259
REMARK  113  A    between atoms: _259  and  _260
REMARK  114  A    between atoms: _260  and  _261
REMARK  115  A    between atoms: _265  and  _267
REMARK  116  A    between atoms: _267  and  _268
REMARK  117  A    between atoms: _267  and  _270
REMARK  118  A    between atoms: _270  and  _271
REMARK  119  A    between atoms: _277  and  _279
REMARK  120  A    between atoms: _279  and  _280
REMARK  121  A    between atoms: _279  and  _282
REMARK  122  A    between atoms: _282  and  _283
REMARK  123  A    between atoms: _283  and  _284
REMARK  124  A    between atoms: _289  and  _291
REMARK  125  A    between atoms: _291  and  _292
REMARK  126  A    between atoms: _291  and  _294
REMARK  127  A    between atoms: _294  and  _295
REMARK                            x       y       z     vdW  Elec       q    Type
REMARK                         _______ _______ _______ _____ _____    ______ ____
ROOT
ATOM      1  CG  LYS A   1      29.310  39.244  -6.142  0.00  0.00    -0.000 C 
ENDROOT
BRANCH   1   2
ATOM      2  CB  LYS A   1      30.640  38.611  -5.755  0.00  0.00    +0.025 C 
BRANCH   2   3
ATOM      3  CA  LYS A   1      31.288  37.755  -6.854  0.00  0.00    +0.133 C 
BRANCH   3   4
ATOM      4  N   LYS A   1      30.487  36.560  -7.116  0.00  0.00    -0.239 NA
ATOM      5  H   LYS A   1      30.615  35.727  -6.507  0.00  0.00    +0.142 HD
ENDBRANCH   3   4
BRANCH   3   6
ATOM      6  C   LYS A   1      32.698  37.380  -6.417  0.00  0.00    +0.224 C 
ATOM      7  O   LYS A   1      32.944  36.255  -5.964  0.00  0.00    -0.287 OA
ENDBRANCH   3   6
ENDBRANCH   2   3
ENDBRANCH   1   2
BRANCH   1   8
ATOM      8  CD  LYS A   1      28.699  40.040  -4.995  0.00  0.00    -0.024 C 
BRANCH   8   9
ATOM      9  CE  LYS A   1      29.388  41.370  -4.792  0.00  0.00    -0.086 C 
BRANCH   9  10
ATOM     10  NZ  LYS A   1      28.809  42.107  -3.632  0.00  0.00    +0.380 N 
ATOM     11  HZ1 LYS A   1      28.924  41.538  -2.769  0.00  0.00    -0.089 HD
ATOM     12  HZ2 LYS A   1      29.303  43.015  -3.519  0.00  0.00    -0.089 HD
ATOM     13  HZ3 LYS A   1      27.798  42.280  -3.802  0.00  0.00    -0.089 HD
ENDBRANCH   9  10
ENDBRANCH   8   9
ENDBRANCH   1   8
TORSDOF 7
REMARK  Name = ../refined-set-2016/3djq/3djq_pocket.pdb
REMARK  127 active torsions:
REMARK  status: ('A' for Active; 'I' for Inactive)
REMARK    1  A    between atoms: _1  and  _3
REMARK    2  A    between atoms: _3  and  _4
REMARK    3  A    between atoms: _3  and  _6
REMARK    4  A    between atoms: _6  and  _7
REMARK    5  A    between atoms: _7  and  _8
REMARK    6  A    between atoms: _10  and  _12
REMARK    7  A    between atoms: _12  and  _13
REMARK    8  A    between atoms: _12  and  _15
REMARK    9  A    between atoms: _15  and  _16
REMARK   10  A    between atoms: _16  and  _17
REMARK   11  A    between atoms: _19  and  _21
REMARK   12  A    between atoms: _21  and  _22
REMARK   13  A    between atoms: _21  and  _24
REMARK   14  A    between atoms: _24  and  _25
REMARK   15  A    between atoms: _25  and  _26
REMARK   16  A    between atoms: _26  and  _27
REMARK   17  A    between atoms: _27  and  _28
REMARK   18  A    between atoms: _32  and  _34
REMARK   19  A    between atoms: _34  and  _35
REMARK   20  A    between atoms: _34  and  _37
REMARK   21  A    between atoms: _37  and  _38
REMARK   22  A    between atoms: _38  and  _39
REMARK   23  A    between atoms: _39  and  _40
REMARK   24  A    between atoms: _40  and  _41
REMARK   25  A    between atoms: _46  and  _47
REMARK   26  A    between atoms: _52  and  _54
REMARK   27  A    between atoms: _54  and  _55
REMARK   28  A    between atoms: _54  and  _57
REMARK   29  A    between atoms: _60  and  _62
REMARK   30  A    between atoms: _62  and  _63
REMARK   31  A    between atoms: _62  and  _65
REMARK   32  A    between atoms: _65  and  _66
REMARK   33  A    between atoms: _71  and  _73
REMARK   34  A    between atoms: _73  and  _74
REMARK   35  A    between atoms: _73  and  _76
REMARK   36  A    between atoms: _76  and  _77
REMARK   37  A    between atoms: _80  and  _82
REMARK   38  A    between atoms: _82  and  _83
REMARK   39  A    between atoms: _82  and  _85
REMARK   40  A    between atoms: _85  and  _86
REMARK   41  A    between atoms: _92  and  _94
REMARK   42  A    between atoms: _94  and  _95
REMARK   43  A    between atoms: _94  and  _97
REMARK   44  A    between atoms: _97  and  _98
REMARK   45  A    between atoms: _98  and  _99
REMARK   46  A    between atoms: _99  and  _100
REMARK   47  A    between atoms: _100  and  _101
REMARK   48  A    between atoms: _105  and  _107
REMARK   49  A    between atoms: _107  and  _108
REMARK   50  A    between atoms: _107  and  _110
REMARK   51  A    between atoms: _110  and  _111
REMARK   52  A    between atoms: _116  and  _118
REMARK   53  A    between atoms: _118  and  _119
REMARK   54  A    between atoms: _118  and  _121
REMARK   55  A    between atoms: _121  and  _122
REMARK   56  A    between atoms: _125  and  _127
REMARK   57  A    between atoms: _127  and  _128
REMARK   58  A    between atoms: _127  and  _130
REMARK   59  A    between atoms: _130  and  _131
REMARK   60  A    between atoms: _134  and  _136
REMARK   61  A    between atoms: _136  and  _137
REMARK   62  A    between atoms: _136  and  _139
REMARK   63  A    between atoms: _139  and  _140
REMARK   64  A    between atoms: _143  and  _145
REMARK   65  A    between atoms: _145  and  _146
REMARK   66  A    between atoms: _145  and  _148
REMARK   67  A    between atoms: _150  and  _152
REMARK   68  A    between atoms: _152  and  _153
REMARK   69  A    between atoms: _152  and  _155
REMARK   70  A    between atoms: _155  and  _156
REMARK   71  A    between atoms: _156  and  _157
REMARK   72  A    between atoms: _157  and  _158
REMARK   73  A    between atoms: _167  and  _169
REMARK   74  A    between atoms: _169  and  _170
REMARK   75  A    between atoms: _169  and  _172
REMARK   76  A    between atoms: _172  and  _173
REMARK   77  A    between atoms: _173  and  _174
REMARK   78  A    between atoms: _174  and  _175
REMARK   79  A    between atoms: _175  and  _176
REMARK   80  A    between atoms: _180  and  _182
REMARK   81  A    between atoms: _182  and  _183
REMARK   82  A    between atoms: _182  and  _185
REMARK   83  A    between atoms: _185  and  _186
REMARK   84  A    between atoms: _189  and  _191
REMARK   85  A    between atoms: _191  and  _192
REMARK   86  A    between atoms: _191  and  _194
REMARK   87  A    between atoms: _197  and  _199
REMARK   88  A    between atoms: _199  and  _200
REMARK   89  A    between atoms: _199  and  _202
REMARK   90  A    between atoms: _202  and  _203
REMARK   91  A    between atoms: _208  and  _210
REMARK   92  A    between atoms: _210  and  _211
REMARK   93  A    between atoms: _210  and  _213
REMARK   94  A    between atoms: _213  and  _214
REMARK   95  A    between atoms: _220  and  _222
REMARK   96  A    between atoms: _222  and  _223
REMARK   97  A    between atoms: _222  and  _225
REMARK   98  A    between atoms: _225  and  _226
REMARK   99  A    between atoms: _229  and  _231
REMARK  100  A    between atoms: _231  and  _232
REMARK  101  A    between atoms: _235  and  _237
REMARK  102  A    between atoms: _237  and  _238
REMARK  103  A    between atoms: _237  and  _240
REMARK  104  A    between atoms: _240  and  _241
REMARK  105  A    between atoms: _243  and  _245
REMARK  106  A    between atoms: _245  and  _246
REMARK  107  A    between atoms: _245  and  _248
REMARK  108  A    between atoms: _252  and  _254
REMARK  109  A    between atoms: _254  and  _255
REMARK  110  A    between atoms: _254  and  _257
REMARK  111  A    between atoms: _257  and  _258
REMARK  112  A    between atoms: _258  and  _259
REMARK  113  A    between atoms: _259  and  _260
REMARK  114  A    between atoms: _260  and  _261
REMARK  115  A    between atoms: _265  and  _267
REMARK  116  A    between atoms: _267  and  _268
REMARK  117  A    between atoms: _267  and  _270
REMARK  118  A    between atoms: _270  and  _271
REMARK  119  A    between atoms: _277  and  _279
REMARK  120  A    between atoms: _279  and  _280
REMARK  121  A    between atoms: _279  and  _282
REMARK  122  A    between atoms: _282  and  _283
REMARK  123  A    between atoms: _283  and  _284
REMARK  124  A    between atoms: _289  and  _291
REMARK  125  A    between atoms: _291  and  _292
REMARK  126  A    between atoms: _291  and  _294
REMARK  127  A    between atoms: _294  and  _295
REMARK                            x       y       z     vdW  Elec       q    Type
REMARK                         _______ _______ _______ _____ _____    ______ ____
ROOT
ATOM      1  CA  ILE A   1      37.694  39.407   0.210  0.00  0.00    +0.133 C 
ENDROOT
BRANCH   1   2
ATOM      2  N   ILE A   1      36.556  38.857  -0.509  0.00  0.00    -0.239 NA
ATOM      3  H   ILE A   1      35.600  38.994  -0.124  0.00  0.00    +0.142 HD
ENDBRANCH   1   2
BRANCH   1   4
ATOM      4  C   ILE A   1      37.674  38.787   1.590  0.00  0.00    +0.224 C 
ATOM      5  O   ILE A   1      36.689  38.906   2.327  0.00  0.00    -0.287 OA
ENDBRANCH   1   4
BRANCH   1   6
ATOM      6  CB  ILE A   1      37.616  40.948   0.321  0.00  0.00    +0.023 C 
ATOM      7  CG2 ILE A   1      38.791  41.473   1.119  0.00  0.00    +0.002 C 
BRANCH   6   8
ATOM      8  CG1 ILE A   1      37.601  41.583  -1.074  0.00  0.00    +0.002 C 
ATOM      9  CD1 ILE A   1      37.434  43.107  -1.056  0.00  0.00    +0.000 C 
ENDBRANCH   6   8
ENDBRANCH   1   6
TORSDOF 4
REMARK  Name = ../refined-set-2016/3djq/3djq_pocket.pdb
REMARK  127 active torsions:
REMARK  status: ('A' for Active; 'I' for Inactive)
REMARK    1  A    between atoms: _1  and  _3
REMARK    2  A    between atoms: _3  and  _4
REMARK    3  A    between atoms: _3  and  _6
REMARK    4  A    between atoms: _6  and  _7
REMARK    5  A    between atoms: _7  and  _8
REMARK    6  A    between atoms: _10  and  _12
REMARK    7  A    between atoms: _12  and  _13
REMARK    8  A    between atoms: _12  and  _15
REMARK    9  A    between atoms: _15  and  _16
REMARK   10  A    between atoms: _16  and  _17
REMARK   11  A    between atoms: _19  and  _21
REMARK   12  A    between atoms: _21  and  _22
REMARK   13  A    between atoms: _21  and  _24
REMARK   14  A    between atoms: _24  and  _25
REMARK   15  A    between atoms: _25  and  _26
REMARK   16  A    between atoms: _26  and  _27
REMARK   17  A    between atoms: _27  and  _28
REMARK   18  A    between atoms: _32  and  _34
REMARK   19  A    between atoms: _34  and  _35
REMARK   20  A    between atoms: _34  and  _37
REMARK   21  A    between atoms: _37  and  _38
REMARK   22  A    between atoms: _38  and  _39
REMARK   23  A    between atoms: _39  and  _40
REMARK   24  A    between atoms: _40  and  _41
REMARK   25  A    between atoms: _46  and  _47
REMARK   26  A    between atoms: _52  and  _54
REMARK   27  A    between atoms: _54  and  _55
REMARK   28  A    between atoms: _54  and  _57
REMARK   29  A    between atoms: _60  and  _62
REMARK   30  A    between atoms: _62  and  _63
REMARK   31  A    between atoms: _62  and  _65
REMARK   32  A    between atoms: _65  and  _66
REMARK   33  A    between atoms: _71  and  _73
REMARK   34  A    between atoms: _73  and  _74
REMARK   35  A    between atoms: _73  and  _76
REMARK   36  A    between atoms: _76  and  _77
REMARK   37  A    between atoms: _80  and  _82
REMARK   38  A    between atoms: _82  and  _83
REMARK   39  A    between atoms: _82  and  _85
REMARK   40  A    between atoms: _85  and  _86
REMARK   41  A    between atoms: _92  and  _94
REMARK   42  A    between atoms: _94  and  _95
REMARK   43  A    between atoms: _94  and  _97
REMARK   44  A    between atoms: _97  and  _98
REMARK   45  A    between atoms: _98  and  _99
REMARK   46  A    between atoms: _99  and  _100
REMARK   47  A    between atoms: _100  and  _101
REMARK   48  A    between atoms: _105  and  _107
REMARK   49  A    between atoms: _107  and  _108
REMARK   50  A    between atoms: _107  and  _110
REMARK   51  A    between atoms: _110  and  _111
REMARK   52  A    between atoms: _116  and  _118
REMARK   53  A    between atoms: _118  and  _119
REMARK   54  A    between atoms: _118  and  _121
REMARK   55  A    between atoms: _121  and  _122
REMARK   56  A    between atoms: _125  and  _127
REMARK   57  A    between atoms: _127  and  _128
REMARK   58  A    between atoms: _127  and  _130
REMARK   59  A    between atoms: _130  and  _131
REMARK   60  A    between atoms: _134  and  _136
REMARK   61  A    between atoms: _136  and  _137
REMARK   62  A    between atoms: _136  and  _139
REMARK   63  A    between atoms: _139  and  _140
REMARK   64  A    between atoms: _143  and  _145
REMARK   65  A    between atoms: _145  and  _146
REMARK   66  A    between atoms: _145  and  _148
REMARK   67  A    between atoms: _150  and  _152
REMARK   68  A    between atoms: _152  and  _153
REMARK   69  A    between atoms: _152  and  _155
REMARK   70  A    between atoms: _155  and  _156
REMARK   71  A    between atoms: _156  and  _157
REMARK   72  A    between atoms: _157  and  _158
REMARK   73  A    between atoms: _167  and  _169
REMARK   74  A    between atoms: _169  and  _170
REMARK   75  A    between atoms: _169  and  _172
REMARK   76  A    between atoms: _172  and  _173
REMARK   77  A    between atoms: _173  and  _174
REMARK   78  A    between atoms: _174  and  _175
REMARK   79  A    between atoms: _175  and  _176
REMARK   80  A    between atoms: _180  and  _182
REMARK   81  A    between atoms: _182  and  _183
REMARK   82  A    between atoms: _182  and  _185
REMARK   83  A    between atoms: _185  and  _186
REMARK   84  A    between atoms: _189  and  _191
REMARK   85  A    between atoms: _191  and  _192
REMARK   86  A    between atoms: _191  and  _194
REMARK   87  A    between atoms: _197  and  _199
REMARK   88  A    between atoms: _199  and  _200
REMARK   89  A    between atoms: _199  and  _202
REMARK   90  A    between atoms: _202  and  _203
REMARK   91  A    between atoms: _208  and  _210
REMARK   92  A    between atoms: _210  and  _211
REMARK   93  A    between atoms: _210  and  _213
REMARK   94  A    between atoms: _213  and  _214
REMARK   95  A    between atoms: _220  and  _222
REMARK   96  A    between atoms: _222  and  _223
REMARK   97  A    between atoms: _222  and  _225
REMARK   98  A    between atoms: _225  and  _226
REMARK   99  A    between atoms: _229  and  _231
REMARK  100  A    between atoms: _231  and  _232
REMARK  101  A    between atoms: _235  and  _237
REMARK  102  A    between atoms: _237  and  _238
REMARK  103  A    between atoms: _237  and  _240
REMARK  104  A    between atoms: _240  and  _241
REMARK  105  A    between atoms: _243  and  _245
REMARK  106  A    between atoms: _245  and  _246
REMARK  107  A    between atoms: _245  and  _248
REMARK  108  A    between atoms: _252  and  _254
REMARK  109  A    between atoms: _254  and  _255
REMARK  110  A    between atoms: _254  and  _257
REMARK  111  A    between atoms: _257  and  _258
REMARK  112  A    between atoms: _258  and  _259
REMARK  113  A    between atoms: _259  and  _260
REMARK  114  A    between atoms: _260  and  _261
REMARK  115  A    between atoms: _265  and  _267
REMARK  116  A    between atoms: _267  and  _268
REMARK  117  A    between atoms: _267  and  _270
REMARK  118  A    between atoms: _270  and  _271
REMARK  119  A    between atoms: _277  and  _279
REMARK  120  A    between atoms: _279  and  _280
REMARK  121  A    between atoms: _279  and  _282
REMARK  122  A    between atoms: _282  and  _283
REMARK  123  A    between atoms: _283  and  _284
REMARK  124  A    between atoms: _289  and  _291
REMARK  125  A    between atoms: _291  and  _292
REMARK  126  A    between atoms: _291  and  _294
REMARK  127  A    between atoms: _294  and  _295
REMARK                            x       y       z     vdW  Elec       q    Type
REMARK                         _______ _______ _______ _____ _____    ______ ____
ROOT
ATOM      1  C   PHE A   3      34.777  38.632   5.647  0.00  0.00    +0.241 C 
ATOM      2  O   PHE A   3      33.968  39.108   6.445  0.00  0.00    -0.273 OA
ATOM      3  N   ASP A   4      35.497  39.373   4.813  0.00  0.00    -0.297 N 
ATOM      4  H   ASP A   4      36.095  38.908   4.100  0.00  0.00    +0.150 HD
ENDROOT
BRANCH   3   5
ATOM      5  CA  ASP A   4      35.461  40.825   4.882  0.00  0.00    +0.160 C 
BRANCH   5   6
ATOM      6  C   ASP A   4      34.356  41.441   4.034  0.00  0.00    +0.241 C 
ATOM      7  O   ASP A   4      33.637  42.336   4.495  0.00  0.00    -0.273 OA
ATOM      8  N   ALA A   5      34.230  40.965   2.795  0.00  0.00    -0.297 N 
ATOM      9  H   ALA A   5      34.766  40.116   2.526  0.00  0.00    +0.150 HD
BRANCH   8  10
ATOM     10  CA  ALA A   5      33.364  41.597   1.804  0.00  0.00    +0.149 C 
ATOM     11  CB  ALA A   5      33.891  42.998   1.472  0.00  0.00    +0.031 C 
BRANCH  10  12
ATOM     12  C   ALA A   5      33.296  40.762   0.531  0.00  0.00    +0.241 C 
ATOM     13  O   ALA A   5      34.138  39.895   0.307  0.00  0.00    -0.273 OA
ATOM     14  N   SER A   6      32.291  41.030  -0.302  0.00  0.00    -0.295 N 
ATOM     15  H   SER A   6      31.485  41.588   0.044  0.00  0.00    +0.150 HD
BRANCH  14  16
ATOM     16  CA  SER A   6      32.288  40.564  -1.684  0.00  0.00    +0.178 C 
BRANCH  16  17
ATOM     17  C   SER A   6      32.246  41.785  -2.597  0.00  0.00    +0.243 C 
ATOM     18  O   SER A   6      31.739  42.834  -2.204  0.00  0.00    -0.273 OA
ATOM     19  N   VAL A   7      32.802  41.654  -3.795  0.00  0.00    -0.295 N 
ATOM     20  H   VAL A   7      33.224  40.743  -4.066  0.00  0.00    +0.150 HD
BRANCH  19  21
ATOM     21  CA  VAL A   7      32.831  42.772  -4.742  0.00  0.00    +0.176 C 
BRANCH  21  22
ATOM     22  C   VAL A   7      32.526  42.289  -6.159  0.00  0.00    +0.382 C 
ATOM     23  OXT VAL A   7      32.703  41.117  -6.477  0.00  0.00    -0.244 OA
ATOM     24  O   VAL A   7      32.067  43.056  -7.003  0.00  0.00    -0.244 OA
ENDBRANCH  21  22
BRANCH  21  25
ATOM     25  CB  VAL A   7      34.159  43.585  -4.666  0.00  0.00    +0.029 C 
ATOM     26  CG2 VAL A   7      35.373  42.720  -4.980  0.00  0.00    +0.002 C 
ATOM     27  CG1 VAL A   7      34.105  44.799  -5.588  0.00  0.00    +0.002 C 
ENDBRANCH  21  25
ENDBRANCH  19  21
ENDBRANCH  16  17
BRANCH  16  28
ATOM     28  CB  SER A   6      31.110  39.639  -1.959  0.00  0.00    +0.166 C 
BRANCH  28  29
ATOM     29  OG  SER A   6      29.882  40.301  -1.724  0.00  0.00    -0.380 OA
ATOM     30  H   SER A   6      29.842  40.595  -0.780  0.00  0.00    +0.211 HD
ENDBRANCH  28  29
ENDBRANCH  16  28
ENDBRANCH  14  16
ENDBRANCH  10  12
ENDBRANCH   8  10
ENDBRANCH   5   6
BRANCH   5  31
ATOM     31  CB  ASP A   4      36.823  41.402   4.491  0.00  0.00    +0.143 C 
BRANCH  31  32
ATOM     32  CG  ASP A   4      37.066  42.766   5.090  0.00  0.00    +0.367 C 
ATOM     33  OD2 ASP A   4      36.976  42.894   6.331  0.00  0.00    -0.246 OA
ATOM     34  OD1 ASP A   4      37.359  43.702   4.326  0.00  0.00    -0.246 OA
ENDBRANCH  31  32
ENDBRANCH   5  31
ENDBRANCH   3   5
BRANCH   1  35
ATOM     35  CA  PHE A   3      35.003  37.129   5.580  0.00  0.00    +0.153 C 
BRANCH  35  37
ATOM     36  C   HIS A   2      36.875  36.565   7.006  0.00  0.00    +0.241 C 
ATOM     37  N   PHE A   3      35.566  36.723   6.852  0.00  0.00    -0.297 N 
ATOM     38  H   PHE A   3      34.933  36.552   7.659  0.00  0.00    +0.150 HD
ATOM     39  O   HIS A   2      37.667  36.557   6.069  0.00  0.00    -0.273 OA
BRANCH  36  40
ATOM     40  CA  HIS A   2      37.351  36.327   8.425  0.00  0.00    +0.155 C 
BRANCH  40  43
ATOM     41  C   VAL A   1      38.716  34.565   9.410  0.00  0.00    +0.238 C 
ATOM     42  O   VAL A   1      38.029  34.553  10.430  0.00  0.00    -0.274 OA
ATOM     43  N   HIS A   2      38.461  35.375   8.388  0.00  0.00    -0.297 N 
ATOM     44  H   HIS A   2      39.065  35.331   7.542  0.00  0.00    +0.150 HD
BRANCH  41  45
ATOM     45  CA  VAL A   1      39.908  33.612   9.251  0.00  0.00    +0.145 C 
BRANCH  45  46
ATOM     46  CB  VAL A   1      41.055  33.990  10.236  0.00  0.00    +0.025 C 
ATOM     47  CG2 VAL A   1      42.105  32.863  10.307  0.00  0.00    +0.002 C 
ATOM     48  CG1 VAL A   1      41.699  35.334   9.861  0.00  0.00    +0.002 C 
ENDBRANCH  45  46
BRANCH  45  49
ATOM     49  N   VAL A   1      40.375  33.523   7.865  0.00  0.00    -0.238 NA
ATOM     50  H   VAL A   1      40.641  34.399   7.372  0.00  0.00    +0.142 HD
ENDBRANCH  45  49
ENDBRANCH  41  45
ENDBRANCH  40  43
BRANCH  40  51
ATOM     51  CB  HIS A   2      37.802  37.641   9.095  0.00  0.00    +0.076 C 
BRANCH  51  52
ATOM     52  CG  HIS A   2      36.859  38.796   8.922  0.00  0.00    +0.082 A 
ATOM     53  CD2 HIS A   2      35.616  39.018   9.413  0.00  0.00    +0.115 A 
ATOM     54  NE2 HIS A   2      35.211  40.249   8.953  0.00  0.00    -0.221 NA
ATOM     55  CE1 HIS A   2      36.176  40.770   8.218  0.00  0.00    +0.199 A 
ATOM     56  ND1 HIS A   2      37.183  39.917   8.185  0.00  0.00    -0.227 NA
ENDBRANCH  51  52
ENDBRANCH  40  51
ENDBRANCH  36  40
ENDBRANCH  35  37
BRANCH  35  57
ATOM     57  CB  PHE A   3      33.689  36.398   5.315  0.00  0.00    +0.055 C 
BRANCH  57  58
ATOM     58  CG  PHE A   3      33.176  36.574   3.919  0.00  0.00    -0.020 A 
ATOM     59  CD2 PHE A   3      32.457  37.719   3.570  0.00  0.00    -0.004 A 
ATOM     60  CE2 PHE A   3      31.993  37.892   2.273  0.00  0.00    -0.000 A 
ATOM     61  CZ  PHE A   3      32.253  36.907   1.304  0.00  0.00    -0.000 A 
ATOM     62  CE1 PHE A   3      32.972  35.769   1.646  0.00  0.00    -0.000 A 
ATOM     63  CD1 PHE A   3      33.433  35.609   2.948  0.00  0.00    -0.004 A 
ENDBRANCH  57  58
ENDBRANCH  35  57
ENDBRANCH   1  35
TORSDOF 24
REMARK  Name = ../refined-set-2016/3djq/3djq_pocket.pdb
REMARK  127 active torsions:
REMARK  status: ('A' for Active; 'I' for Inactive)
REMARK    1  A    between atoms: _1  and  _3
REMARK    2  A    between atoms: _3  and  _4
REMARK    3  A    between atoms: _3  and  _6
REMARK    4  A    between atoms: _6  and  _7
REMARK    5  A    between atoms: _7  and  _8
REMARK    6  A    between atoms: _10  and  _12
REMARK    7  A    between atoms: _12  and  _13
REMARK    8  A    between atoms: _12  and  _15
REMARK    9  A    between atoms: _15  and  _16
REMARK   10  A    between atoms: _16  and  _17
REMARK   11  A    between atoms: _19  and  _21
REMARK   12  A    between atoms: _21  and  _22
REMARK   13  A    between atoms: _21  and  _24
REMARK   14  A    between atoms: _24  and  _25
REMARK   15  A    between atoms: _25  and  _26
REMARK   16  A    between atoms: _26  and  _27
REMARK   17  A    between atoms: _27  and  _28
REMARK   18  A    between atoms: _32  and  _34
REMARK   19  A    between atoms: _34  and  _35
REMARK   20  A    between atoms: _34  and  _37
REMARK   21  A    between atoms: _37  and  _38
REMARK   22  A    between atoms: _38  and  _39
REMARK   23  A    between atoms: _39  and  _40
REMARK   24  A    between atoms: _40  and  _41
REMARK   25  A    between atoms: _46  and  _47
REMARK   26  A    between atoms: _52  and  _54
REMARK   27  A    between atoms: _54  and  _55
REMARK   28  A    between atoms: _54  and  _57
REMARK   29  A    between atoms: _60  and  _62
REMARK   30  A    between atoms: _62  and  _63
REMARK   31  A    between atoms: _62  and  _65
REMARK   32  A    between atoms: _65  and  _66
REMARK   33  A    between atoms: _71  and  _73
REMARK   34  A    between atoms: _73  and  _74
REMARK   35  A    between atoms: _73  and  _76
REMARK   36  A    between atoms: _76  and  _77
REMARK   37  A    between atoms: _80  and  _82
REMARK   38  A    between atoms: _82  and  _83
REMARK   39  A    between atoms: _82  and  _85
REMARK   40  A    between atoms: _85  and  _86
REMARK   41  A    between atoms: _92  and  _94
REMARK   42  A    between atoms: _94  and  _95
REMARK   43  A    between atoms: _94  and  _97
REMARK   44  A    between atoms: _97  and  _98
REMARK   45  A    between atoms: _98  and  _99
REMARK   46  A    between atoms: _99  and  _100
REMARK   47  A    between atoms: _100  and  _101
REMARK   48  A    between atoms: _105  and  _107
REMARK   49  A    between atoms: _107  and  _108
REMARK   50  A    between atoms: _107  and  _110
REMARK   51  A    between atoms: _110  and  _111
REMARK   52  A    between atoms: _116  and  _118
REMARK   53  A    between atoms: _118  and  _119
REMARK   54  A    between atoms: _118  and  _121
REMARK   55  A    between atoms: _121  and  _122
REMARK   56  A    between atoms: _125  and  _127
REMARK   57  A    between atoms: _127  and  _128
REMARK   58  A    between atoms: _127  and  _130
REMARK   59  A    between atoms: _130  and  _131
REMARK   60  A    between atoms: _134  and  _136
REMARK   61  A    between atoms: _136  and  _137
REMARK   62  A    between atoms: _136  and  _139
REMARK   63  A    between atoms: _139  and  _140
REMARK   64  A    between atoms: _143  and  _145
REMARK   65  A    between atoms: _145  and  _146
REMARK   66  A    between atoms: _145  and  _148
REMARK   67  A    between atoms: _150  and  _152
REMARK   68  A    between atoms: _152  and  _153
REMARK   69  A    between atoms: _152  and  _155
REMARK   70  A    between atoms: _155  and  _156
REMARK   71  A    between atoms: _156  and  _157
REMARK   72  A    between atoms: _157  and  _158
REMARK   73  A    between atoms: _167  and  _169
REMARK   74  A    between atoms: _169  and  _170
REMARK   75  A    between atoms: _169  and  _172
REMARK   76  A    between atoms: _172  and  _173
REMARK   77  A    between atoms: _173  and  _174
REMARK   78  A    between atoms: _174  and  _175
REMARK   79  A    between atoms: _175  and  _176
REMARK   80  A    between atoms: _180  and  _182
REMARK   81  A    between atoms: _182  and  _183
REMARK   82  A    between atoms: _182  and  _185
REMARK   83  A    between atoms: _185  and  _186
REMARK   84  A    between atoms: _189  and  _191
REMARK   85  A    between atoms: _191  and  _192
REMARK   86  A    between atoms: _191  and  _194
REMARK   87  A    between atoms: _197  and  _199
REMARK   88  A    between atoms: _199  and  _200
REMARK   89  A    between atoms: _199  and  _202
REMARK   90  A    between atoms: _202  and  _203
REMARK   91  A    between atoms: _208  and  _210
REMARK   92  A    between atoms: _210  and  _211
REMARK   93  A    between atoms: _210  and  _213
REMARK   94  A    between atoms: _213  and  _214
REMARK   95  A    between atoms: _220  and  _222
REMARK   96  A    between atoms: _222  and  _223
REMARK   97  A    between atoms: _222  and  _225
REMARK   98  A    between atoms: _225  and  _226
REMARK   99  A    between atoms: _229  and  _231
REMARK  100  A    between atoms: _231  and  _232
REMARK  101  A    between atoms: _235  and  _237
REMARK  102  A    between atoms: _237  and  _238
REMARK  103  A    between atoms: _237  and  _240
REMARK  104  A    between atoms: _240  and  _241
REMARK  105  A    between atoms: _243  and  _245
REMARK  106  A    between atoms: _245  and  _246
REMARK  107  A    between atoms: _245  and  _248
REMARK  108  A    between atoms: _252  and  _254
REMARK  109  A    between atoms: _254  and  _255
REMARK  110  A    between atoms: _254  and  _257
REMARK  111  A    between atoms: _257  and  _258
REMARK  112  A    between atoms: _258  and  _259
REMARK  113  A    between atoms: _259  and  _260
REMARK  114  A    between atoms: _260  and  _261
REMARK  115  A    between atoms: _265  and  _267
REMARK  116  A    between atoms: _267  and  _268
REMARK  117  A    between atoms: _267  and  _270
REMARK  118  A    between atoms: _270  and  _271
REMARK  119  A    between atoms: _277  and  _279
REMARK  120  A    between atoms: _279  and  _280
REMARK  121  A    between atoms: _279  and  _282
REMARK  122  A    between atoms: _282  and  _283
REMARK  123  A    between atoms: _283  and  _284
REMARK  124  A    between atoms: _289  and  _291
REMARK  125  A    between atoms: _291  and  _292
REMARK  126  A    between atoms: _291  and  _294
REMARK  127  A    between atoms: _294  and  _295
REMARK                            x       y       z     vdW  Elec       q    Type
REMARK                         _______ _______ _______ _____ _____    ______ ____
ROOT
ATOM      1  C   LYS A   1      34.948  29.800  11.451  0.00  0.00    +0.238 C 
ATOM      2  O   LYS A   1      33.757  29.949  11.130  0.00  0.00    -0.274 OA
ATOM      3  N   PHE A   2      35.956  30.134  10.641  0.00  0.00    -0.298 N 
ATOM      4  H   PHE A   2      36.935  30.082  10.989  0.00  0.00    +0.150 HD
ENDROOT
BRANCH   1   5
ATOM      5  CA  LYS A   1      35.320  29.245  12.832  0.00  0.00    +0.145 C 
BRANCH   5   6
ATOM      6  N   LYS A   1      36.426  28.290  12.757  0.00  0.00    -0.238 NA
ATOM      7  H   LYS A   1      37.311  28.499  13.262  0.00  0.00    +0.142 HD
ENDBRANCH   5   6
BRANCH   5   8
ATOM      8  CB  LYS A   1      35.681  30.375  13.800  0.00  0.00    +0.026 C 
BRANCH   8   9
ATOM      9  CG  LYS A   1      34.621  31.450  13.929  0.00  0.00    -0.000 C 
BRANCH   9  10
ATOM     10  CD  LYS A   1      34.986  32.421  15.042  0.00  0.00    -0.024 C 
BRANCH  10  11
ATOM     11  CE  LYS A   1      33.826  33.348  15.385  0.00  0.00    -0.086 C 
BRANCH  11  12
ATOM     12  NZ  LYS A   1      34.213  34.271  16.487  0.00  0.00    +0.380 N 
ATOM     13  HZ1 LYS A   1      34.466  33.716  17.329  0.00  0.00    -0.089 HD
ATOM     14  HZ2 LYS A   1      33.413  34.897  16.710  0.00  0.00    -0.089 HD
ATOM     15  HZ3 LYS A   1      35.029  34.842  16.188  0.00  0.00    -0.089 HD
ENDBRANCH  11  12
ENDBRANCH  10  11
ENDBRANCH   9  10
ENDBRANCH   8   9
ENDBRANCH   5   8
ENDBRANCH   1   5
BRANCH   3  16
ATOM     16  CA  PHE A   2      35.699  30.569   9.278  0.00  0.00    +0.141 C 
BRANCH  16  17
ATOM     17  C   PHE A   2      35.006  29.460   8.485  0.00  0.00    +0.227 C 
ATOM     18  O   PHE A   2      34.073  29.731   7.740  0.00  0.00    -0.286 OA
ENDBRANCH  16  17
BRANCH  16  19
ATOM     19  CB  PHE A   2      36.978  31.013   8.571  0.00  0.00    +0.054 C 
BRANCH  19  20
ATOM     20  CG  PHE A   2      36.741  31.450   7.155  0.00  0.00    -0.020 A 
ATOM     21  CD2 PHE A   2      36.468  32.792   6.850  0.00  0.00    -0.004 A 
ATOM     22  CE2 PHE A   2      36.215  33.195   5.537  0.00  0.00    -0.000 A 
ATOM     23  CZ  PHE A   2      36.230  32.252   4.507  0.00  0.00    -0.000 A 
ATOM     24  CE1 PHE A   2      36.486  30.905   4.807  0.00  0.00    -0.000 A 
ATOM     25  CD1 PHE A   2      36.745  30.517   6.126  0.00  0.00    -0.004 A 
ENDBRANCH  19  20
ENDBRANCH  16  19
ENDBRANCH   3  16
TORSDOF 11
REMARK  Name = ../refined-set-2016/3djq/3djq_pocket.pdb
REMARK  127 active torsions:
REMARK  status: ('A' for Active; 'I' for Inactive)
REMARK    1  A    between atoms: _1  and  _3
REMARK    2  A    between atoms: _3  and  _4
REMARK    3  A    between atoms: _3  and  _6
REMARK    4  A    between atoms: _6  and  _7
REMARK    5  A    between atoms: _7  and  _8
REMARK    6  A    between atoms: _10  and  _12
REMARK    7  A    between atoms: _12  and  _13
REMARK    8  A    between atoms: _12  and  _15
REMARK    9  A    between atoms: _15  and  _16
REMARK   10  A    between atoms: _16  and  _17
REMARK   11  A    between atoms: _19  and  _21
REMARK   12  A    between atoms: _21  and  _22
REMARK   13  A    between atoms: _21  and  _24
REMARK   14  A    between atoms: _24  and  _25
REMARK   15  A    between atoms: _25  and  _26
REMARK   16  A    between atoms: _26  and  _27
REMARK   17  A    between atoms: _27  and  _28
REMARK   18  A    between atoms: _32  and  _34
REMARK   19  A    between atoms: _34  and  _35
REMARK   20  A    between atoms: _34  and  _37
REMARK   21  A    between atoms: _37  and  _38
REMARK   22  A    between atoms: _38  and  _39
REMARK   23  A    between atoms: _39  and  _40
REMARK   24  A    between atoms: _40  and  _41
REMARK   25  A    between atoms: _46  and  _47
REMARK   26  A    between atoms: _52  and  _54
REMARK   27  A    between atoms: _54  and  _55
REMARK   28  A    between atoms: _54  and  _57
REMARK   29  A    between atoms: _60  and  _62
REMARK   30  A    between atoms: _62  and  _63
REMARK   31  A    between atoms: _62  and  _65
REMARK   32  A    between atoms: _65  and  _66
REMARK   33  A    between atoms: _71  and  _73
REMARK   34  A    between atoms: _73  and  _74
REMARK   35  A    between atoms: _73  and  _76
REMARK   36  A    between atoms: _76  and  _77
REMARK   37  A    between atoms: _80  and  _82
REMARK   38  A    between atoms: _82  and  _83
REMARK   39  A    between atoms: _82  and  _85
REMARK   40  A    between atoms: _85  and  _86
REMARK   41  A    between atoms: _92  and  _94
REMARK   42  A    between atoms: _94  and  _95
REMARK   43  A    between atoms: _94  and  _97
REMARK   44  A    between atoms: _97  and  _98
REMARK   45  A    between atoms: _98  and  _99
REMARK   46  A    between atoms: _99  and  _100
REMARK   47  A    between atoms: _100  and  _101
REMARK   48  A    between atoms: _105  and  _107
REMARK   49  A    between atoms: _107  and  _108
REMARK   50  A    between atoms: _107  and  _110
REMARK   51  A    between atoms: _110  and  _111
REMARK   52  A    between atoms: _116  and  _118
REMARK   53  A    between atoms: _118  and  _119
REMARK   54  A    between atoms: _118  and  _121
REMARK   55  A    between atoms: _121  and  _122
REMARK   56  A    between atoms: _125  and  _127
REMARK   57  A    between atoms: _127  and  _128
REMARK   58  A    between atoms: _127  and  _130
REMARK   59  A    between atoms: _130  and  _131
REMARK   60  A    between atoms: _134  and  _136
REMARK   61  A    between atoms: _136  and  _137
REMARK   62  A    between atoms: _136  and  _139
REMARK   63  A    between atoms: _139  and  _140
REMARK   64  A    between atoms: _143  and  _145
REMARK   65  A    between atoms: _145  and  _146
REMARK   66  A    between atoms: _145  and  _148
REMARK   67  A    between atoms: _150  and  _152
REMARK   68  A    between atoms: _152  and  _153
REMARK   69  A    between atoms: _152  and  _155
REMARK   70  A    between atoms: _155  and  _156
REMARK   71  A    between atoms: _156  and  _157
REMARK   72  A    between atoms: _157  and  _158
REMARK   73  A    between atoms: _167  and  _169
REMARK   74  A    between atoms: _169  and  _170
REMARK   75  A    between atoms: _169  and  _172
REMARK   76  A    between atoms: _172  and  _173
REMARK   77  A    between atoms: _173  and  _174
REMARK   78  A    between atoms: _174  and  _175
REMARK   79  A    between atoms: _175  and  _176
REMARK   80  A    between atoms: _180  and  _182
REMARK   81  A    between atoms: _182  and  _183
REMARK   82  A    between atoms: _182  and  _185
REMARK   83  A    between atoms: _185  and  _186
REMARK   84  A    between atoms: _189  and  _191
REMARK   85  A    between atoms: _191  and  _192
REMARK   86  A    between atoms: _191  and  _194
REMARK   87  A    between atoms: _197  and  _199
REMARK   88  A    between atoms: _199  and  _200
REMARK   89  A    between atoms: _199  and  _202
REMARK   90  A    between atoms: _202  and  _203
REMARK   91  A    between atoms: _208  and  _210
REMARK   92  A    between atoms: _210  and  _211
REMARK   93  A    between atoms: _210  and  _213
REMARK   94  A    between atoms: _213  and  _214
REMARK   95  A    between atoms: _220  and  _222
REMARK   96  A    between atoms: _222  and  _223
REMARK   97  A    between atoms: _222  and  _225
REMARK   98  A    between atoms: _225  and  _226
REMARK   99  A    between atoms: _229  and  _231
REMARK  100  A    between atoms: _231  and  _232
REMARK  101  A    between atoms: _235  and  _237
REMARK  102  A    between atoms: _237  and  _238
REMARK  103  A    between atoms: _237  and  _240
REMARK  104  A    between atoms: _240  and  _241
REMARK  105  A    between atoms: _243  and  _245
REMARK  106  A    between atoms: _245  and  _246
REMARK  107  A    between atoms: _245  and  _248
REMARK  108  A    between atoms: _252  and  _254
REMARK  109  A    between atoms: _254  and  _255
REMARK  110  A    between atoms: _254  and  _257
REMARK  111  A    between atoms: _257  and  _258
REMARK  112  A    between atoms: _258  and  _259
REMARK  113  A    between atoms: _259  and  _260
REMARK  114  A    between atoms: _260  and  _261
REMARK  115  A    between atoms: _265  and  _267
REMARK  116  A    between atoms: _267  and  _268
REMARK  117  A    between atoms: _267  and  _270
REMARK  118  A    between atoms: _270  and  _271
REMARK  119  A    between atoms: _277  and  _279
REMARK  120  A    between atoms: _279  and  _280
REMARK  121  A    between atoms: _279  and  _282
REMARK  122  A    between atoms: _282  and  _283
REMARK  123  A    between atoms: _283  and  _284
REMARK  124  A    between atoms: _289  and  _291
REMARK  125  A    between atoms: _291  and  _292
REMARK  126  A    between atoms: _291  and  _294
REMARK  127  A    between atoms: _294  and  _295
REMARK                            x       y       z     vdW  Elec       q    Type
REMARK                         _______ _______ _______ _____ _____    ______ ____
ROOT
ATOM      1  C   GLN A   1      30.390  30.725   7.958  0.00  0.00    +0.238 C 
ATOM      2  O   GLN A   1      29.376  31.284   7.539  0.00  0.00    -0.274 OA
ATOM      3  N   HIS A   2      31.394  30.348   7.166  0.00  0.00    -0.298 N 
ATOM      4  H   HIS A   2      32.143  29.728   7.536  0.00  0.00    +0.150 HD
ENDROOT
BRANCH   1   5
ATOM      5  CA  GLN A   1      30.544  30.476   9.444  0.00  0.00    +0.145 C 
BRANCH   5   6
ATOM      6  N   GLN A   1      31.373  29.320   9.732  0.00  0.00    -0.238 NA
ATOM      7  H   GLN A   1      32.373  29.446   9.990  0.00  0.00    +0.142 HD
ENDBRANCH   5   6
BRANCH   5   8
ATOM      8  CB  GLN A   1      31.110  31.727  10.110  0.00  0.00    +0.036 C 
BRANCH   8   9
ATOM      9  CG  GLN A   1      31.055  31.704  11.627  0.00  0.00    +0.087 C 
BRANCH   9  10
ATOM     10  CD  GLN A   1      31.447  33.033  12.247  0.00  0.00    +0.219 C 
ATOM     11  NE2 GLN A   1      30.985  33.279  13.467  0.00  0.00    -0.329 N 
ATOM     12 HE21 GLN A   1      31.240  34.164  13.951  0.00  0.00    +0.145 HD
ATOM     13 HE22 GLN A   1      30.369  32.587  13.939  0.00  0.00    +0.145 HD
ATOM     14  OE1 GLN A   1      32.177  33.816  11.647  0.00  0.00    -0.275 OA
ENDBRANCH   9  10
ENDBRANCH   8   9
ENDBRANCH   5   8
ENDBRANCH   1   5
BRANCH   3  15
ATOM     15  CA  HIS A   2      31.445  30.806   5.772  0.00  0.00    +0.143 C 
BRANCH  15  16
ATOM     16  C   HIS A   2      31.622  29.776   4.666  0.00  0.00    +0.227 C 
ATOM     17  O   HIS A   2      31.551  30.141   3.492  0.00  0.00    -0.286 OA
ENDBRANCH  15  16
BRANCH  15  18
ATOM     18  CB  HIS A   2      32.516  31.886   5.616  0.00  0.00    +0.075 C 
BRANCH  18  19
ATOM     19  CG  HIS A   2      32.311  33.058   6.518  0.00  0.00    +0.082 A 
ATOM     20  CD2 HIS A   2      33.023  33.501   7.583  0.00  0.00    +0.115 A 
ATOM     21  NE2 HIS A   2      32.387  34.618   8.059  0.00  0.00    -0.221 NA
ATOM     22  CE1 HIS A   2      31.319  34.855   7.316  0.00  0.00    +0.199 A 
ATOM     23  ND1 HIS A   2      31.243  33.916   6.385  0.00  0.00    -0.227 NA
ENDBRANCH  18  19
ENDBRANCH  15  18
ENDBRANCH   3  15
TORSDOF 9
REMARK  Name = ../refined-set-2016/3djq/3djq_pocket.pdb
REMARK  127 active torsions:
REMARK  status: ('A' for Active; 'I' for Inactive)
REMARK    1  A    between atoms: _1  and  _3
REMARK    2  A    between atoms: _3  and  _4
REMARK    3  A    between atoms: _3  and  _6
REMARK    4  A    between atoms: _6  and  _7
REMARK    5  A    between atoms: _7  and  _8
REMARK    6  A    between atoms: _10  and  _12
REMARK    7  A    between atoms: _12  and  _13
REMARK    8  A    between atoms: _12  and  _15
REMARK    9  A    between atoms: _15  and  _16
REMARK   10  A    between atoms: _16  and  _17
REMARK   11  A    between atoms: _19  and  _21
REMARK   12  A    between atoms: _21  and  _22
REMARK   13  A    between atoms: _21  and  _24
REMARK   14  A    between atoms: _24  and  _25
REMARK   15  A    between atoms: _25  and  _26
REMARK   16  A    between atoms: _26  and  _27
REMARK   17  A    between atoms: _27  and  _28
REMARK   18  A    between atoms: _32  and  _34
REMARK   19  A    between atoms: _34  and  _35
REMARK   20  A    between atoms: _34  and  _37
REMARK   21  A    between atoms: _37  and  _38
REMARK   22  A    between atoms: _38  and  _39
REMARK   23  A    between atoms: _39  and  _40
REMARK   24  A    between atoms: _40  and  _41
REMARK   25  A    between atoms: _46  and  _47
REMARK   26  A    between atoms: _52  and  _54
REMARK   27  A    between atoms: _54  and  _55
REMARK   28  A    between atoms: _54  and  _57
REMARK   29  A    between atoms: _60  and  _62
REMARK   30  A    between atoms: _62  and  _63
REMARK   31  A    between atoms: _62  and  _65
REMARK   32  A    between atoms: _65  and  _66
REMARK   33  A    between atoms: _71  and  _73
REMARK   34  A    between atoms: _73  and  _74
REMARK   35  A    between atoms: _73  and  _76
REMARK   36  A    between atoms: _76  and  _77
REMARK   37  A    between atoms: _80  and  _82
REMARK   38  A    between atoms: _82  and  _83
REMARK   39  A    between atoms: _82  and  _85
REMARK   40  A    between atoms: _85  and  _86
REMARK   41  A    between atoms: _92  and  _94
REMARK   42  A    between atoms: _94  and  _95
REMARK   43  A    between atoms: _94  and  _97
REMARK   44  A    between atoms: _97  and  _98
REMARK   45  A    between atoms: _98  and  _99
REMARK   46  A    between atoms: _99  and  _100
REMARK   47  A    between atoms: _100  and  _101
REMARK   48  A    between atoms: _105  and  _107
REMARK   49  A    between atoms: _107  and  _108
REMARK   50  A    between atoms: _107  and  _110
REMARK   51  A    between atoms: _110  and  _111
REMARK   52  A    between atoms: _116  and  _118
REMARK   53  A    between atoms: _118  and  _119
REMARK   54  A    between atoms: _118  and  _121
REMARK   55  A    between atoms: _121  and  _122
REMARK   56  A    between atoms: _125  and  _127
REMARK   57  A    between atoms: _127  and  _128
REMARK   58  A    between atoms: _127  and  _130
REMARK   59  A    between atoms: _130  and  _131
REMARK   60  A    between atoms: _134  and  _136
REMARK   61  A    between atoms: _136  and  _137
REMARK   62  A    between atoms: _136  and  _139
REMARK   63  A    between atoms: _139  and  _140
REMARK   64  A    between atoms: _143  and  _145
REMARK   65  A    between atoms: _145  and  _146
REMARK   66  A    between atoms: _145  and  _148
REMARK   67  A    between atoms: _150  and  _152
REMARK   68  A    between atoms: _152  and  _153
REMARK   69  A    between atoms: _152  and  _155
REMARK   70  A    between atoms: _155  and  _156
REMARK   71  A    between atoms: _156  and  _157
REMARK   72  A    between atoms: _157  and  _158
REMARK   73  A    between atoms: _167  and  _169
REMARK   74  A    between atoms: _169  and  _170
REMARK   75  A    between atoms: _169  and  _172
REMARK   76  A    between atoms: _172  and  _173
REMARK   77  A    between atoms: _173  and  _174
REMARK   78  A    between atoms: _174  and  _175
REMARK   79  A    between atoms: _175  and  _176
REMARK   80  A    between atoms: _180  and  _182
REMARK   81  A    between atoms: _182  and  _183
REMARK   82  A    between atoms: _182  and  _185
REMARK   83  A    between atoms: _185  and  _186
REMARK   84  A    between atoms: _189  and  _191
REMARK   85  A    between atoms: _191  and  _192
REMARK   86  A    between atoms: _191  and  _194
REMARK   87  A    between atoms: _197  and  _199
REMARK   88  A    between atoms: _199  and  _200
REMARK   89  A    between atoms: _199  and  _202
REMARK   90  A    between atoms: _202  and  _203
REMARK   91  A    between atoms: _208  and  _210
REMARK   92  A    between atoms: _210  and  _211
REMARK   93  A    between atoms: _210  and  _213
REMARK   94  A    between atoms: _213  and  _214
REMARK   95  A    between atoms: _220  and  _222
REMARK   96  A    between atoms: _222  and  _223
REMARK   97  A    between atoms: _222  and  _225
REMARK   98  A    between atoms: _225  and  _226
REMARK   99  A    between atoms: _229  and  _231
REMARK  100  A    between atoms: _231  and  _232
REMARK  101  A    between atoms: _235  and  _237
REMARK  102  A    between atoms: _237  and  _238
REMARK  103  A    between atoms: _237  and  _240
REMARK  104  A    between atoms: _240  and  _241
REMARK  105  A    between atoms: _243  and  _245
REMARK  106  A    between atoms: _245  and  _246
REMARK  107  A    between atoms: _245  and  _248
REMARK  108  A    between atoms: _252  and  _254
REMARK  109  A    between atoms: _254  and  _255
REMARK  110  A    between atoms: _254  and  _257
REMARK  111  A    between atoms: _257  and  _258
REMARK  112  A    between atoms: _258  and  _259
REMARK  113  A    between atoms: _259  and  _260
REMARK  114  A    between atoms: _260  and  _261
REMARK  115  A    between atoms: _265  and  _267
REMARK  116  A    between atoms: _267  and  _268
REMARK  117  A    between atoms: _267  and  _270
REMARK  118  A    between atoms: _270  and  _271
REMARK  119  A    between atoms: _277  and  _279
REMARK  120  A    between atoms: _279  and  _280
REMARK  121  A    between atoms: _279  and  _282
REMARK  122  A    between atoms: _282  and  _283
REMARK  123  A    between atoms: _283  and  _284
REMARK  124  A    between atoms: _289  and  _291
REMARK  125  A    between atoms: _291  and  _292
REMARK  126  A    between atoms: _291  and  _294
REMARK  127  A    between atoms: _294  and  _295
REMARK                            x       y       z     vdW  Elec       q    Type
REMARK                         _______ _______ _______ _____ _____    ______ ____
ROOT
ATOM      1  O   HOH     1      37.223  33.117  12.318  0.00  0.00    +0.000 OA
ENDROOT
TORSDOF 0
REMARK  Name = ../refined-set-2016/3djq/3djq_pocket.pdb
REMARK  127 active torsions:
REMARK  status: ('A' for Active; 'I' for Inactive)
REMARK    1  A    between atoms: _1  and  _3
REMARK    2  A    between atoms: _3  and  _4
REMARK    3  A    between atoms: _3  and  _6
REMARK    4  A    between atoms: _6  and  _7
REMARK    5  A    between atoms: _7  and  _8
REMARK    6  A    between atoms: _10  and  _12
REMARK    7  A    between atoms: _12  and  _13
REMARK    8  A    between atoms: _12  and  _15
REMARK    9  A    between atoms: _15  and  _16
REMARK   10  A    between atoms: _16  and  _17
REMARK   11  A    between atoms: _19  and  _21
REMARK   12  A    between atoms: _21  and  _22
REMARK   13  A    between atoms: _21  and  _24
REMARK   14  A    between atoms: _24  and  _25
REMARK   15  A    between atoms: _25  and  _26
REMARK   16  A    between atoms: _26  and  _27
REMARK   17  A    between atoms: _27  and  _28
REMARK   18  A    between atoms: _32  and  _34
REMARK   19  A    between atoms: _34  and  _35
REMARK   20  A    between atoms: _34  and  _37
REMARK   21  A    between atoms: _37  and  _38
REMARK   22  A    between atoms: _38  and  _39
REMARK   23  A    between atoms: _39  and  _40
REMARK   24  A    between atoms: _40  and  _41
REMARK   25  A    between atoms: _46  and  _47
REMARK   26  A    between atoms: _52  and  _54
REMARK   27  A    between atoms: _54  and  _55
REMARK   28  A    between atoms: _54  and  _57
REMARK   29  A    between atoms: _60  and  _62
REMARK   30  A    between atoms: _62  and  _63
REMARK   31  A    between atoms: _62  and  _65
REMARK   32  A    between atoms: _65  and  _66
REMARK   33  A    between atoms: _71  and  _73
REMARK   34  A    between atoms: _73  and  _74
REMARK   35  A    between atoms: _73  and  _76
REMARK   36  A    between atoms: _76  and  _77
REMARK   37  A    between atoms: _80  and  _82
REMARK   38  A    between atoms: _82  and  _83
REMARK   39  A    between atoms: _82  and  _85
REMARK   40  A    between atoms: _85  and  _86
REMARK   41  A    between atoms: _92  and  _94
REMARK   42  A    between atoms: _94  and  _95
REMARK   43  A    between atoms: _94  and  _97
REMARK   44  A    between atoms: _97  and  _98
REMARK   45  A    between atoms: _98  and  _99
REMARK   46  A    between atoms: _99  and  _100
REMARK   47  A    between atoms: _100  and  _101
REMARK   48  A    between atoms: _105  and  _107
REMARK   49  A    between atoms: _107  and  _108
REMARK   50  A    between atoms: _107  and  _110
REMARK   51  A    between atoms: _110  and  _111
REMARK   52  A    between atoms: _116  and  _118
REMARK   53  A    between atoms: _118  and  _119
REMARK   54  A    between atoms: _118  and  _121
REMARK   55  A    between atoms: _121  and  _122
REMARK   56  A    between atoms: _125  and  _127
REMARK   57  A    between atoms: _127  and  _128
REMARK   58  A    between atoms: _127  and  _130
REMARK   59  A    between atoms: _130  and  _131
REMARK   60  A    between atoms: _134  and  _136
REMARK   61  A    between atoms: _136  and  _137
REMARK   62  A    between atoms: _136  and  _139
REMARK   63  A    between atoms: _139  and  _140
REMARK   64  A    between atoms: _143  and  _145
REMARK   65  A    between atoms: _145  and  _146
REMARK   66  A    between atoms: _145  and  _148
REMARK   67  A    between atoms: _150  and  _152
REMARK   68  A    between atoms: _152  and  _153
REMARK   69  A    between atoms: _152  and  _155
REMARK   70  A    between atoms: _155  and  _156
REMARK   71  A    between atoms: _156  and  _157
REMARK   72  A    between atoms: _157  and  _158
REMARK   73  A    between atoms: _167  and  _169
REMARK   74  A    between atoms: _169  and  _170
REMARK   75  A    between atoms: _169  and  _172
REMARK   76  A    between atoms: _172  and  _173
REMARK   77  A    between atoms: _173  and  _174
REMARK   78  A    between atoms: _174  and  _175
REMARK   79  A    between atoms: _175  and  _176
REMARK   80  A    between atoms: _180  and  _182
REMARK   81  A    between atoms: _182  and  _183
REMARK   82  A    between atoms: _182  and  _185
REMARK   83  A    between atoms: _185  and  _186
REMARK   84  A    between atoms: _189  and  _191
REMARK   85  A    between atoms: _191  and  _192
REMARK   86  A    between atoms: _191  and  _194
REMARK   87  A    between atoms: _197  and  _199
REMARK   88  A    between atoms: _199  and  _200
REMARK   89  A    between atoms: _199  and  _202
REMARK   90  A    between atoms: _202  and  _203
REMARK   91  A    between atoms: _208  and  _210
REMARK   92  A    between atoms: _210  and  _211
REMARK   93  A    between atoms: _210  and  _213
REMARK   94  A    between atoms: _213  and  _214
REMARK   95  A    between atoms: _220  and  _222
REMARK   96  A    between atoms: _222  and  _223
REMARK   97  A    between atoms: _222  and  _225
REMARK   98  A    between atoms: _225  and  _226
REMARK   99  A    between atoms: _229  and  _231
REMARK  100  A    between atoms: _231  and  _232
REMARK  101  A    between atoms: _235  and  _237
REMARK  102  A    between atoms: _237  and  _238
REMARK  103  A    between atoms: _237  and  _240
REMARK  104  A    between atoms: _240  and  _241
REMARK  105  A    between atoms: _243  and  _245
REMARK  106  A    between atoms: _245  and  _246
REMARK  107  A    between atoms: _245  and  _248
REMARK  108  A    between atoms: _252  and  _254
REMARK  109  A    between atoms: _254  and  _255
REMARK  110  A    between atoms: _254  and  _257
REMARK  111  A    between atoms: _257  and  _258
REMARK  112  A    between atoms: _258  and  _259
REMARK  113  A    between atoms: _259  and  _260
REMARK  114  A    between atoms: _260  and  _261
REMARK  115  A    between atoms: _265  and  _267
REMARK  116  A    between atoms: _267  and  _268
REMARK  117  A    between atoms: _267  and  _270
REMARK  118  A    between atoms: _270  and  _271
REMARK  119  A    between atoms: _277  and  _279
REMARK  120  A    between atoms: _279  and  _280
REMARK  121  A    between atoms: _279  and  _282
REMARK  122  A    between atoms: _282  and  _283
REMARK  123  A    between atoms: _283  and  _284
REMARK  124  A    between atoms: _289  and  _291
REMARK  125  A    between atoms: _291  and  _292
REMARK  126  A    between atoms: _291  and  _294
REMARK  127  A    between atoms: _294  and  _295
REMARK                            x       y       z     vdW  Elec       q    Type
REMARK                         _______ _______ _______ _____ _____    ______ ____
ROOT
ATOM      1  O   HOH     1      27.436  34.900  15.301  0.00  0.00    +0.000 OA
ENDROOT
TORSDOF 0
REMARK  Name = ../refined-set-2016/3djq/3djq_pocket.pdb
REMARK  127 active torsions:
REMARK  status: ('A' for Active; 'I' for Inactive)
REMARK    1  A    between atoms: _1  and  _3
REMARK    2  A    between atoms: _3  and  _4
REMARK    3  A    between atoms: _3  and  _6
REMARK    4  A    between atoms: _6  and  _7
REMARK    5  A    between atoms: _7  and  _8
REMARK    6  A    between atoms: _10  and  _12
REMARK    7  A    between atoms: _12  and  _13
REMARK    8  A    between atoms: _12  and  _15
REMARK    9  A    between atoms: _15  and  _16
REMARK   10  A    between atoms: _16  and  _17
REMARK   11  A    between atoms: _19  and  _21
REMARK   12  A    between atoms: _21  and  _22
REMARK   13  A    between atoms: _21  and  _24
REMARK   14  A    between atoms: _24  and  _25
REMARK   15  A    between atoms: _25  and  _26
REMARK   16  A    between atoms: _26  and  _27
REMARK   17  A    between atoms: _27  and  _28
REMARK   18  A    between atoms: _32  and  _34
REMARK   19  A    between atoms: _34  and  _35
REMARK   20  A    between atoms: _34  and  _37
REMARK   21  A    between atoms: _37  and  _38
REMARK   22  A    between atoms: _38  and  _39
REMARK   23  A    between atoms: _39  and  _40
REMARK   24  A    between atoms: _40  and  _41
REMARK   25  A    between atoms: _46  and  _47
REMARK   26  A    between atoms: _52  and  _54
REMARK   27  A    between atoms: _54  and  _55
REMARK   28  A    between atoms: _54  and  _57
REMARK   29  A    between atoms: _60  and  _62
REMARK   30  A    between atoms: _62  and  _63
REMARK   31  A    between atoms: _62  and  _65
REMARK   32  A    between atoms: _65  and  _66
REMARK   33  A    between atoms: _71  and  _73
REMARK   34  A    between atoms: _73  and  _74
REMARK   35  A    between atoms: _73  and  _76
REMARK   36  A    between atoms: _76  and  _77
REMARK   37  A    between atoms: _80  and  _82
REMARK   38  A    between atoms: _82  and  _83
REMARK   39  A    between atoms: _82  and  _85
REMARK   40  A    between atoms: _85  and  _86
REMARK   41  A    between atoms: _92  and  _94
REMARK   42  A    between atoms: _94  and  _95
REMARK   43  A    between atoms: _94  and  _97
REMARK   44  A    between atoms: _97  and  _98
REMARK   45  A    between atoms: _98  and  _99
REMARK   46  A    between atoms: _99  and  _100
REMARK   47  A    between atoms: _100  and  _101
REMARK   48  A    between atoms: _105  and  _107
REMARK   49  A    between atoms: _107  and  _108
REMARK   50  A    between atoms: _107  and  _110
REMARK   51  A    between atoms: _110  and  _111
REMARK   52  A    between atoms: _116  and  _118
REMARK   53  A    between atoms: _118  and  _119
REMARK   54  A    between atoms: _118  and  _121
REMARK   55  A    between atoms: _121  and  _122
REMARK   56  A    between atoms: _125  and  _127
REMARK   57  A    between atoms: _127  and  _128
REMARK   58  A    between atoms: _127  and  _130
REMARK   59  A    between atoms: _130  and  _131
REMARK   60  A    between atoms: _134  and  _136
REMARK   61  A    between atoms: _136  and  _137
REMARK   62  A    between atoms: _136  and  _139
REMARK   63  A    between atoms: _139  and  _140
REMARK   64  A    between atoms: _143  and  _145
REMARK   65  A    between atoms: _145  and  _146
REMARK   66  A    between atoms: _145  and  _148
REMARK   67  A    between atoms: _150  and  _152
REMARK   68  A    between atoms: _152  and  _153
REMARK   69  A    between atoms: _152  and  _155
REMARK   70  A    between atoms: _155  and  _156
REMARK   71  A    between atoms: _156  and  _157
REMARK   72  A    between atoms: _157  and  _158
REMARK   73  A    between atoms: _167  and  _169
REMARK   74  A    between atoms: _169  and  _170
REMARK   75  A    between atoms: _169  and  _172
REMARK   76  A    between atoms: _172  and  _173
REMARK   77  A    between atoms: _173  and  _174
REMARK   78  A    between atoms: _174  and  _175
REMARK   79  A    between atoms: _175  and  _176
REMARK   80  A    between atoms: _180  and  _182
REMARK   81  A    between atoms: _182  and  _183
REMARK   82  A    between atoms: _182  and  _185
REMARK   83  A    between atoms: _185  and  _186
REMARK   84  A    between atoms: _189  and  _191
REMARK   85  A    between atoms: _191  and  _192
REMARK   86  A    between atoms: _191  and  _194
REMARK   87  A    between atoms: _197  and  _199
REMARK   88  A    between atoms: _199  and  _200
REMARK   89  A    between atoms: _199  and  _202
REMARK   90  A    between atoms: _202  and  _203
REMARK   91  A    between atoms: _208  and  _210
REMARK   92  A    between atoms: _210  and  _211
REMARK   93  A    between atoms: _210  and  _213
REMARK   94  A    between atoms: _213  and  _214
REMARK   95  A    between atoms: _220  and  _222
REMARK   96  A    between atoms: _222  and  _223
REMARK   97  A    between atoms: _222  and  _225
REMARK   98  A    between atoms: _225  and  _226
REMARK   99  A    between atoms: _229  and  _231
REMARK  100  A    between atoms: _231  and  _232
REMARK  101  A    between atoms: _235  and  _237
REMARK  102  A    between atoms: _237  and  _238
REMARK  103  A    between atoms: _237  and  _240
REMARK  104  A    between atoms: _240  and  _241
REMARK  105  A    between atoms: _243  and  _245
REMARK  106  A    between atoms: _245  and  _246
REMARK  107  A    between atoms: _245  and  _248
REMARK  108  A    between atoms: _252  and  _254
REMARK  109  A    between atoms: _254  and  _255
REMARK  110  A    between atoms: _254  and  _257
REMARK  111  A    between atoms: _257  and  _258
REMARK  112  A    between atoms: _258  and  _259
REMARK  113  A    between atoms: _259  and  _260
REMARK  114  A    between atoms: _260  and  _261
REMARK  115  A    between atoms: _265  and  _267
REMARK  116  A    between atoms: _267  and  _268
REMARK  117  A    between atoms: _267  and  _270
REMARK  118  A    between atoms: _270  and  _271
REMARK  119  A    between atoms: _277  and  _279
REMARK  120  A    between atoms: _279  and  _280
REMARK  121  A    between atoms: _279  and  _282
REMARK  122  A    between atoms: _282  and  _283
REMARK  123  A    between atoms: _283  and  _284
REMARK  124  A    between atoms: _289  and  _291
REMARK  125  A    between atoms: _291  and  _292
REMARK  126  A    between atoms: _291  and  _294
REMARK  127  A    between atoms: _294  and  _295
REMARK                            x       y       z     vdW  Elec       q    Type
REMARK                         _______ _______ _______ _____ _____    ______ ____
ROOT
ATOM      1  O   HOH     1      37.369  44.251   8.314  0.00  0.00    +0.000 OA
ENDROOT
TORSDOF 0
REMARK  Name = ../refined-set-2016/3djq/3djq_pocket.pdb
REMARK  127 active torsions:
REMARK  status: ('A' for Active; 'I' for Inactive)
REMARK    1  A    between atoms: _1  and  _3
REMARK    2  A    between atoms: _3  and  _4
REMARK    3  A    between atoms: _3  and  _6
REMARK    4  A    between atoms: _6  and  _7
REMARK    5  A    between atoms: _7  and  _8
REMARK    6  A    between atoms: _10  and  _12
REMARK    7  A    between atoms: _12  and  _13
REMARK    8  A    between atoms: _12  and  _15
REMARK    9  A    between atoms: _15  and  _16
REMARK   10  A    between atoms: _16  and  _17
REMARK   11  A    between atoms: _19  and  _21
REMARK   12  A    between atoms: _21  and  _22
REMARK   13  A    between atoms: _21  and  _24
REMARK   14  A    between atoms: _24  and  _25
REMARK   15  A    between atoms: _25  and  _26
REMARK   16  A    between atoms: _26  and  _27
REMARK   17  A    between atoms: _27  and  _28
REMARK   18  A    between atoms: _32  and  _34
REMARK   19  A    between atoms: _34  and  _35
REMARK   20  A    between atoms: _34  and  _37
REMARK   21  A    between atoms: _37  and  _38
REMARK   22  A    between atoms: _38  and  _39
REMARK   23  A    between atoms: _39  and  _40
REMARK   24  A    between atoms: _40  and  _41
REMARK   25  A    between atoms: _46  and  _47
REMARK   26  A    between atoms: _52  and  _54
REMARK   27  A    between atoms: _54  and  _55
REMARK   28  A    between atoms: _54  and  _57
REMARK   29  A    between atoms: _60  and  _62
REMARK   30  A    between atoms: _62  and  _63
REMARK   31  A    between atoms: _62  and  _65
REMARK   32  A    between atoms: _65  and  _66
REMARK   33  A    between atoms: _71  and  _73
REMARK   34  A    between atoms: _73  and  _74
REMARK   35  A    between atoms: _73  and  _76
REMARK   36  A    between atoms: _76  and  _77
REMARK   37  A    between atoms: _80  and  _82
REMARK   38  A    between atoms: _82  and  _83
REMARK   39  A    between atoms: _82  and  _85
REMARK   40  A    between atoms: _85  and  _86
REMARK   41  A    between atoms: _92  and  _94
REMARK   42  A    between atoms: _94  and  _95
REMARK   43  A    between atoms: _94  and  _97
REMARK   44  A    between atoms: _97  and  _98
REMARK   45  A    between atoms: _98  and  _99
REMARK   46  A    between atoms: _99  and  _100
REMARK   47  A    between atoms: _100  and  _101
REMARK   48  A    between atoms: _105  and  _107
REMARK   49  A    between atoms: _107  and  _108
REMARK   50  A    between atoms: _107  and  _110
REMARK   51  A    between atoms: _110  and  _111
REMARK   52  A    between atoms: _116  and  _118
REMARK   53  A    between atoms: _118  and  _119
REMARK   54  A    between atoms: _118  and  _121
REMARK   55  A    between atoms: _121  and  _122
REMARK   56  A    between atoms: _125  and  _127
REMARK   57  A    between atoms: _127  and  _128
REMARK   58  A    between atoms: _127  and  _130
REMARK   59  A    between atoms: _130  and  _131
REMARK   60  A    between atoms: _134  and  _136
REMARK   61  A    between atoms: _136  and  _137
REMARK   62  A    between atoms: _136  and  _139
REMARK   63  A    between atoms: _139  and  _140
REMARK   64  A    between atoms: _143  and  _145
REMARK   65  A    between atoms: _145  and  _146
REMARK   66  A    between atoms: _145  and  _148
REMARK   67  A    between atoms: _150  and  _152
REMARK   68  A    between atoms: _152  and  _153
REMARK   69  A    between atoms: _152  and  _155
REMARK   70  A    between atoms: _155  and  _156
REMARK   71  A    between atoms: _156  and  _157
REMARK   72  A    between atoms: _157  and  _158
REMARK   73  A    between atoms: _167  and  _169
REMARK   74  A    between atoms: _169  and  _170
REMARK   75  A    between atoms: _169  and  _172
REMARK   76  A    between atoms: _172  and  _173
REMARK   77  A    between atoms: _173  and  _174
REMARK   78  A    between atoms: _174  and  _175
REMARK   79  A    between atoms: _175  and  _176
REMARK   80  A    between atoms: _180  and  _182
REMARK   81  A    between atoms: _182  and  _183
REMARK   82  A    between atoms: _182  and  _185
REMARK   83  A    between atoms: _185  and  _186
REMARK   84  A    between atoms: _189  and  _191
REMARK   85  A    between atoms: _191  and  _192
REMARK   86  A    between atoms: _191  and  _194
REMARK   87  A    between atoms: _197  and  _199
REMARK   88  A    between atoms: _199  and  _200
REMARK   89  A    between atoms: _199  and  _202
REMARK   90  A    between atoms: _202  and  _203
REMARK   91  A    between atoms: _208  and  _210
REMARK   92  A    between atoms: _210  and  _211
REMARK   93  A    between atoms: _210  and  _213
REMARK   94  A    between atoms: _213  and  _214
REMARK   95  A    between atoms: _220  and  _222
REMARK   96  A    between atoms: _222  and  _223
REMARK   97  A    between atoms: _222  and  _225
REMARK   98  A    between atoms: _225  and  _226
REMARK   99  A    between atoms: _229  and  _231
REMARK  100  A    between atoms: _231  and  _232
REMARK  101  A    between atoms: _235  and  _237
REMARK  102  A    between atoms: _237  and  _238
REMARK  103  A    between atoms: _237  and  _240
REMARK  104  A    between atoms: _240  and  _241
REMARK  105  A    between atoms: _243  and  _245
REMARK  106  A    between atoms: _245  and  _246
REMARK  107  A    between atoms: _245  and  _248
REMARK  108  A    between atoms: _252  and  _254
REMARK  109  A    between atoms: _254  and  _255
REMARK  110  A    between atoms: _254  and  _257
REMARK  111  A    between atoms: _257  and  _258
REMARK  112  A    between atoms: _258  and  _259
REMARK  113  A    between atoms: _259  and  _260
REMARK  114  A    between atoms: _260  and  _261
REMARK  115  A    between atoms: _265  and  _267
REMARK  116  A    between atoms: _267  and  _268
REMARK  117  A    between atoms: _267  and  _270
REMARK  118  A    between atoms: _270  and  _271
REMARK  119  A    between atoms: _277  and  _279
REMARK  120  A    between atoms: _279  and  _280
REMARK  121  A    between atoms: _279  and  _282
REMARK  122  A    between atoms: _282  and  _283
REMARK  123  A    between atoms: _283  and  _284
REMARK  124  A    between atoms: _289  and  _291
REMARK  125  A    between atoms: _291  and  _292
REMARK  126  A    between atoms: _291  and  _294
REMARK  127  A    between atoms: _294  and  _295
REMARK                            x       y       z     vdW  Elec       q    Type
REMARK                         _______ _______ _______ _____ _____    ______ ____
ROOT
ATOM      1  O   HOH     1      35.004  43.456   9.341  0.00  0.00    +0.000 OA
ENDROOT
TORSDOF 0
REMARK  Name = ../refined-set-2016/3djq/3djq_pocket.pdb
REMARK  127 active torsions:
REMARK  status: ('A' for Active; 'I' for Inactive)
REMARK    1  A    between atoms: _1  and  _3
REMARK    2  A    between atoms: _3  and  _4
REMARK    3  A    between atoms: _3  and  _6
REMARK    4  A    between atoms: _6  and  _7
REMARK    5  A    between atoms: _7  and  _8
REMARK    6  A    between atoms: _10  and  _12
REMARK    7  A    between atoms: _12  and  _13
REMARK    8  A    between atoms: _12  and  _15
REMARK    9  A    between atoms: _15  and  _16
REMARK   10  A    between atoms: _16  and  _17
REMARK   11  A    between atoms: _19  and  _21
REMARK   12  A    between atoms: _21  and  _22
REMARK   13  A    between atoms: _21  and  _24
REMARK   14  A    between atoms: _24  and  _25
REMARK   15  A    between atoms: _25  and  _26
REMARK   16  A    between atoms: _26  and  _27
REMARK   17  A    between atoms: _27  and  _28
REMARK   18  A    between atoms: _32  and  _34
REMARK   19  A    between atoms: _34  and  _35
REMARK   20  A    between atoms: _34  and  _37
REMARK   21  A    between atoms: _37  and  _38
REMARK   22  A    between atoms: _38  and  _39
REMARK   23  A    between atoms: _39  and  _40
REMARK   24  A    between atoms: _40  and  _41
REMARK   25  A    between atoms: _46  and  _47
REMARK   26  A    between atoms: _52  and  _54
REMARK   27  A    between atoms: _54  and  _55
REMARK   28  A    between atoms: _54  and  _57
REMARK   29  A    between atoms: _60  and  _62
REMARK   30  A    between atoms: _62  and  _63
REMARK   31  A    between atoms: _62  and  _65
REMARK   32  A    between atoms: _65  and  _66
REMARK   33  A    between atoms: _71  and  _73
REMARK   34  A    between atoms: _73  and  _74
REMARK   35  A    between atoms: _73  and  _76
REMARK   36  A    between atoms: _76  and  _77
REMARK   37  A    between atoms: _80  and  _82
REMARK   38  A    between atoms: _82  and  _83
REMARK   39  A    between atoms: _82  and  _85
REMARK   40  A    between atoms: _85  and  _86
REMARK   41  A    between atoms: _92  and  _94
REMARK   42  A    between atoms: _94  and  _95
REMARK   43  A    between atoms: _94  and  _97
REMARK   44  A    between atoms: _97  and  _98
REMARK   45  A    between atoms: _98  and  _99
REMARK   46  A    between atoms: _99  and  _100
REMARK   47  A    between atoms: _100  and  _101
REMARK   48  A    between atoms: _105  and  _107
REMARK   49  A    between atoms: _107  and  _108
REMARK   50  A    between atoms: _107  and  _110
REMARK   51  A    between atoms: _110  and  _111
REMARK   52  A    between atoms: _116  and  _118
REMARK   53  A    between atoms: _118  and  _119
REMARK   54  A    between atoms: _118  and  _121
REMARK   55  A    between atoms: _121  and  _122
REMARK   56  A    between atoms: _125  and  _127
REMARK   57  A    between atoms: _127  and  _128
REMARK   58  A    between atoms: _127  and  _130
REMARK   59  A    between atoms: _130  and  _131
REMARK   60  A    between atoms: _134  and  _136
REMARK   61  A    between atoms: _136  and  _137
REMARK   62  A    between atoms: _136  and  _139
REMARK   63  A    between atoms: _139  and  _140
REMARK   64  A    between atoms: _143  and  _145
REMARK   65  A    between atoms: _145  and  _146
REMARK   66  A    between atoms: _145  and  _148
REMARK   67  A    between atoms: _150  and  _152
REMARK   68  A    between atoms: _152  and  _153
REMARK   69  A    between atoms: _152  and  _155
REMARK   70  A    between atoms: _155  and  _156
REMARK   71  A    between atoms: _156  and  _157
REMARK   72  A    between atoms: _157  and  _158
REMARK   73  A    between atoms: _167  and  _169
REMARK   74  A    between atoms: _169  and  _170
REMARK   75  A    between atoms: _169  and  _172
REMARK   76  A    between atoms: _172  and  _173
REMARK   77  A    between atoms: _173  and  _174
REMARK   78  A    between atoms: _174  and  _175
REMARK   79  A    between atoms: _175  and  _176
REMARK   80  A    between atoms: _180  and  _182
REMARK   81  A    between atoms: _182  and  _183
REMARK   82  A    between atoms: _182  and  _185
REMARK   83  A    between atoms: _185  and  _186
REMARK   84  A    between atoms: _189  and  _191
REMARK   85  A    between atoms: _191  and  _192
REMARK   86  A    between atoms: _191  and  _194
REMARK   87  A    between atoms: _197  and  _199
REMARK   88  A    between atoms: _199  and  _200
REMARK   89  A    between atoms: _199  and  _202
REMARK   90  A    between atoms: _202  and  _203
REMARK   91  A    between atoms: _208  and  _210
REMARK   92  A    between atoms: _210  and  _211
REMARK   93  A    between atoms: _210  and  _213
REMARK   94  A    between atoms: _213  and  _214
REMARK   95  A    between atoms: _220  and  _222
REMARK   96  A    between atoms: _222  and  _223
REMARK   97  A    between atoms: _222  and  _225
REMARK   98  A    between atoms: _225  and  _226
REMARK   99  A    between atoms: _229  and  _231
REMARK  100  A    between atoms: _231  and  _232
REMARK  101  A    between atoms: _235  and  _237
REMARK  102  A    between atoms: _237  and  _238
REMARK  103  A    between atoms: _237  and  _240
REMARK  104  A    between atoms: _240  and  _241
REMARK  105  A    between atoms: _243  and  _245
REMARK  106  A    between atoms: _245  and  _246
REMARK  107  A    between atoms: _245  and  _248
REMARK  108  A    between atoms: _252  and  _254
REMARK  109  A    between atoms: _254  and  _255
REMARK  110  A    between atoms: _254  and  _257
REMARK  111  A    between atoms: _257  and  _258
REMARK  112  A    between atoms: _258  and  _259
REMARK  113  A    between atoms: _259  and  _260
REMARK  114  A    between atoms: _260  and  _261
REMARK  115  A    between atoms: _265  and  _267
REMARK  116  A    between atoms: _267  and  _268
REMARK  117  A    between atoms: _267  and  _270
REMARK  118  A    between atoms: _270  and  _271
REMARK  119  A    between atoms: _277  and  _279
REMARK  120  A    between atoms: _279  and  _280
REMARK  121  A    between atoms: _279  and  _282
REMARK  122  A    between atoms: _282  and  _283
REMARK  123  A    between atoms: _283  and  _284
REMARK  124  A    between atoms: _289  and  _291
REMARK  125  A    between atoms: _291  and  _292
REMARK  126  A    between atoms: _291  and  _294
REMARK  127  A    between atoms: _294  and  _295
REMARK                            x       y       z     vdW  Elec       q    Type
REMARK                         _______ _______ _______ _____ _____    ______ ____
ROOT
ATOM      1  O   HOH     1      33.443  42.542   7.337  0.00  0.00    +0.000 OA
ENDROOT
TORSDOF 0
REMARK  Name = ../refined-set-2016/3djq/3djq_pocket.pdb
REMARK  127 active torsions:
REMARK  status: ('A' for Active; 'I' for Inactive)
REMARK    1  A    between atoms: _1  and  _3
REMARK    2  A    between atoms: _3  and  _4
REMARK    3  A    between atoms: _3  and  _6
REMARK    4  A    between atoms: _6  and  _7
REMARK    5  A    between atoms: _7  and  _8
REMARK    6  A    between atoms: _10  and  _12
REMARK    7  A    between atoms: _12  and  _13
REMARK    8  A    between atoms: _12  and  _15
REMARK    9  A    between atoms: _15  and  _16
REMARK   10  A    between atoms: _16  and  _17
REMARK   11  A    between atoms: _19  and  _21
REMARK   12  A    between atoms: _21  and  _22
REMARK   13  A    between atoms: _21  and  _24
REMARK   14  A    between atoms: _24  and  _25
REMARK   15  A    between atoms: _25  and  _26
REMARK   16  A    between atoms: _26  and  _27
REMARK   17  A    between atoms: _27  and  _28
REMARK   18  A    between atoms: _32  and  _34
REMARK   19  A    between atoms: _34  and  _35
REMARK   20  A    between atoms: _34  and  _37
REMARK   21  A    between atoms: _37  and  _38
REMARK   22  A    between atoms: _38  and  _39
REMARK   23  A    between atoms: _39  and  _40
REMARK   24  A    between atoms: _40  and  _41
REMARK   25  A    between atoms: _46  and  _47
REMARK   26  A    between atoms: _52  and  _54
REMARK   27  A    between atoms: _54  and  _55
REMARK   28  A    between atoms: _54  and  _57
REMARK   29  A    between atoms: _60  and  _62
REMARK   30  A    between atoms: _62  and  _63
REMARK   31  A    between atoms: _62  and  _65
REMARK   32  A    between atoms: _65  and  _66
REMARK   33  A    between atoms: _71  and  _73
REMARK   34  A    between atoms: _73  and  _74
REMARK   35  A    between atoms: _73  and  _76
REMARK   36  A    between atoms: _76  and  _77
REMARK   37  A    between atoms: _80  and  _82
REMARK   38  A    between atoms: _82  and  _83
REMARK   39  A    between atoms: _82  and  _85
REMARK   40  A    between atoms: _85  and  _86
REMARK   41  A    between atoms: _92  and  _94
REMARK   42  A    between atoms: _94  and  _95
REMARK   43  A    between atoms: _94  and  _97
REMARK   44  A    between atoms: _97  and  _98
REMARK   45  A    between atoms: _98  and  _99
REMARK   46  A    between atoms: _99  and  _100
REMARK   47  A    between atoms: _100  and  _101
REMARK   48  A    between atoms: _105  and  _107
REMARK   49  A    between atoms: _107  and  _108
REMARK   50  A    between atoms: _107  and  _110
REMARK   51  A    between atoms: _110  and  _111
REMARK   52  A    between atoms: _116  and  _118
REMARK   53  A    between atoms: _118  and  _119
REMARK   54  A    between atoms: _118  and  _121
REMARK   55  A    between atoms: _121  and  _122
REMARK   56  A    between atoms: _125  and  _127
REMARK   57  A    between atoms: _127  and  _128
REMARK   58  A    between atoms: _127  and  _130
REMARK   59  A    between atoms: _130  and  _131
REMARK   60  A    between atoms: _134  and  _136
REMARK   61  A    between atoms: _136  and  _137
REMARK   62  A    between atoms: _136  and  _139
REMARK   63  A    between atoms: _139  and  _140
REMARK   64  A    between atoms: _143  and  _145
REMARK   65  A    between atoms: _145  and  _146
REMARK   66  A    between atoms: _145  and  _148
REMARK   67  A    between atoms: _150  and  _152
REMARK   68  A    between atoms: _152  and  _153
REMARK   69  A    between atoms: _152  and  _155
REMARK   70  A    between atoms: _155  and  _156
REMARK   71  A    between atoms: _156  and  _157
REMARK   72  A    between atoms: _157  and  _158
REMARK   73  A    between atoms: _167  and  _169
REMARK   74  A    between atoms: _169  and  _170
REMARK   75  A    between atoms: _169  and  _172
REMARK   76  A    between atoms: _172  and  _173
REMARK   77  A    between atoms: _173  and  _174
REMARK   78  A    between atoms: _174  and  _175
REMARK   79  A    between atoms: _175  and  _176
REMARK   80  A    between atoms: _180  and  _182
REMARK   81  A    between atoms: _182  and  _183
REMARK   82  A    between atoms: _182  and  _185
REMARK   83  A    between atoms: _185  and  _186
REMARK   84  A    between atoms: _189  and  _191
REMARK   85  A    between atoms: _191  and  _192
REMARK   86  A    between atoms: _191  and  _194
REMARK   87  A    between atoms: _197  and  _199
REMARK   88  A    between atoms: _199  and  _200
REMARK   89  A    between atoms: _199  and  _202
REMARK   90  A    between atoms: _202  and  _203
REMARK   91  A    between atoms: _208  and  _210
REMARK   92  A    between atoms: _210  and  _211
REMARK   93  A    between atoms: _210  and  _213
REMARK   94  A    between atoms: _213  and  _214
REMARK   95  A    between atoms: _220  and  _222
REMARK   96  A    between atoms: _222  and  _223
REMARK   97  A    between atoms: _222  and  _225
REMARK   98  A    between atoms: _225  and  _226
REMARK   99  A    between atoms: _229  and  _231
REMARK  100  A    between atoms: _231  and  _232
REMARK  101  A    between atoms: _235  and  _237
REMARK  102  A    between atoms: _237  and  _238
REMARK  103  A    between atoms: _237  and  _240
REMARK  104  A    between atoms: _240  and  _241
REMARK  105  A    between atoms: _243  and  _245
REMARK  106  A    between atoms: _245  and  _246
REMARK  107  A    between atoms: _245  and  _248
REMARK  108  A    between atoms: _252  and  _254
REMARK  109  A    between atoms: _254  and  _255
REMARK  110  A    between atoms: _254  and  _257
REMARK  111  A    between atoms: _257  and  _258
REMARK  112  A    between atoms: _258  and  _259
REMARK  113  A    between atoms: _259  and  _260
REMARK  114  A    between atoms: _260  and  _261
REMARK  115  A    between atoms: _265  and  _267
REMARK  116  A    between atoms: _267  and  _268
REMARK  117  A    between atoms: _267  and  _270
REMARK  118  A    between atoms: _270  and  _271
REMARK  119  A    between atoms: _277  and  _279
REMARK  120  A    between atoms: _279  and  _280
REMARK  121  A    between atoms: _279  and  _282
REMARK  122  A    between atoms: _282  and  _283
REMARK  123  A    between atoms: _283  and  _284
REMARK  124  A    between atoms: _289  and  _291
REMARK  125  A    between atoms: _291  and  _292
REMARK  126  A    between atoms: _291  and  _294
REMARK  127  A    between atoms: _294  and  _295
REMARK                            x       y       z     vdW  Elec       q    Type
REMARK                         _______ _______ _______ _____ _____    ______ ____
ROOT
ATOM      1  O   HOH     1      39.369  42.106   9.725  0.00  0.00    +0.000 OA
ENDROOT
TORSDOF 0
REMARK  Name = ../refined-set-2016/3djq/3djq_pocket.pdb
REMARK  127 active torsions:
REMARK  status: ('A' for Active; 'I' for Inactive)
REMARK    1  A    between atoms: _1  and  _3
REMARK    2  A    between atoms: _3  and  _4
REMARK    3  A    between atoms: _3  and  _6
REMARK    4  A    between atoms: _6  and  _7
REMARK    5  A    between atoms: _7  and  _8
REMARK    6  A    between atoms: _10  and  _12
REMARK    7  A    between atoms: _12  and  _13
REMARK    8  A    between atoms: _12  and  _15
REMARK    9  A    between atoms: _15  and  _16
REMARK   10  A    between atoms: _16  and  _17
REMARK   11  A    between atoms: _19  and  _21
REMARK   12  A    between atoms: _21  and  _22
REMARK   13  A    between atoms: _21  and  _24
REMARK   14  A    between atoms: _24  and  _25
REMARK   15  A    between atoms: _25  and  _26
REMARK   16  A    between atoms: _26  and  _27
REMARK   17  A    between atoms: _27  and  _28
REMARK   18  A    between atoms: _32  and  _34
REMARK   19  A    between atoms: _34  and  _35
REMARK   20  A    between atoms: _34  and  _37
REMARK   21  A    between atoms: _37  and  _38
REMARK   22  A    between atoms: _38  and  _39
REMARK   23  A    between atoms: _39  and  _40
REMARK   24  A    between atoms: _40  and  _41
REMARK   25  A    between atoms: _46  and  _47
REMARK   26  A    between atoms: _52  and  _54
REMARK   27  A    between atoms: _54  and  _55
REMARK   28  A    between atoms: _54  and  _57
REMARK   29  A    between atoms: _60  and  _62
REMARK   30  A    between atoms: _62  and  _63
REMARK   31  A    between atoms: _62  and  _65
REMARK   32  A    between atoms: _65  and  _66
REMARK   33  A    between atoms: _71  and  _73
REMARK   34  A    between atoms: _73  and  _74
REMARK   35  A    between atoms: _73  and  _76
REMARK   36  A    between atoms: _76  and  _77
REMARK   37  A    between atoms: _80  and  _82
REMARK   38  A    between atoms: _82  and  _83
REMARK   39  A    between atoms: _82  and  _85
REMARK   40  A    between atoms: _85  and  _86
REMARK   41  A    between atoms: _92  and  _94
REMARK   42  A    between atoms: _94  and  _95
REMARK   43  A    between atoms: _94  and  _97
REMARK   44  A    between atoms: _97  and  _98
REMARK   45  A    between atoms: _98  and  _99
REMARK   46  A    between atoms: _99  and  _100
REMARK   47  A    between atoms: _100  and  _101
REMARK   48  A    between atoms: _105  and  _107
REMARK   49  A    between atoms: _107  and  _108
REMARK   50  A    between atoms: _107  and  _110
REMARK   51  A    between atoms: _110  and  _111
REMARK   52  A    between atoms: _116  and  _118
REMARK   53  A    between atoms: _118  and  _119
REMARK   54  A    between atoms: _118  and  _121
REMARK   55  A    between atoms: _121  and  _122
REMARK   56  A    between atoms: _125  and  _127
REMARK   57  A    between atoms: _127  and  _128
REMARK   58  A    between atoms: _127  and  _130
REMARK   59  A    between atoms: _130  and  _131
REMARK   60  A    between atoms: _134  and  _136
REMARK   61  A    between atoms: _136  and  _137
REMARK   62  A    between atoms: _136  and  _139
REMARK   63  A    between atoms: _139  and  _140
REMARK   64  A    between atoms: _143  and  _145
REMARK   65  A    between atoms: _145  and  _146
REMARK   66  A    between atoms: _145  and  _148
REMARK   67  A    between atoms: _150  and  _152
REMARK   68  A    between atoms: _152  and  _153
REMARK   69  A    between atoms: _152  and  _155
REMARK   70  A    between atoms: _155  and  _156
REMARK   71  A    between atoms: _156  and  _157
REMARK   72  A    between atoms: _157  and  _158
REMARK   73  A    between atoms: _167  and  _169
REMARK   74  A    between atoms: _169  and  _170
REMARK   75  A    between atoms: _169  and  _172
REMARK   76  A    between atoms: _172  and  _173
REMARK   77  A    between atoms: _173  and  _174
REMARK   78  A    between atoms: _174  and  _175
REMARK   79  A    between atoms: _175  and  _176
REMARK   80  A    between atoms: _180  and  _182
REMARK   81  A    between atoms: _182  and  _183
REMARK   82  A    between atoms: _182  and  _185
REMARK   83  A    between atoms: _185  and  _186
REMARK   84  A    between atoms: _189  and  _191
REMARK   85  A    between atoms: _191  and  _192
REMARK   86  A    between atoms: _191  and  _194
REMARK   87  A    between atoms: _197  and  _199
REMARK   88  A    between atoms: _199  and  _200
REMARK   89  A    between atoms: _199  and  _202
REMARK   90  A    between atoms: _202  and  _203
REMARK   91  A    between atoms: _208  and  _210
REMARK   92  A    between atoms: _210  and  _211
REMARK   93  A    between atoms: _210  and  _213
REMARK   94  A    between atoms: _213  and  _214
REMARK   95  A    between atoms: _220  and  _222
REMARK   96  A    between atoms: _222  and  _223
REMARK   97  A    between atoms: _222  and  _225
REMARK   98  A    between atoms: _225  and  _226
REMARK   99  A    between atoms: _229  and  _231
REMARK  100  A    between atoms: _231  and  _232
REMARK  101  A    between atoms: _235  and  _237
REMARK  102  A    between atoms: _237  and  _238
REMARK  103  A    between atoms: _237  and  _240
REMARK  104  A    between atoms: _240  and  _241
REMARK  105  A    between atoms: _243  and  _245
REMARK  106  A    between atoms: _245  and  _246
REMARK  107  A    between atoms: _245  and  _248
REMARK  108  A    between atoms: _252  and  _254
REMARK  109  A    between atoms: _254  and  _255
REMARK  110  A    between atoms: _254  and  _257
REMARK  111  A    between atoms: _257  and  _258
REMARK  112  A    between atoms: _258  and  _259
REMARK  113  A    between atoms: _259  and  _260
REMARK  114  A    between atoms: _260  and  _261
REMARK  115  A    between atoms: _265  and  _267
REMARK  116  A    between atoms: _267  and  _268
REMARK  117  A    between atoms: _267  and  _270
REMARK  118  A    between atoms: _270  and  _271
REMARK  119  A    between atoms: _277  and  _279
REMARK  120  A    between atoms: _279  and  _280
REMARK  121  A    between atoms: _279  and  _282
REMARK  122  A    between atoms: _282  and  _283
REMARK  123  A    between atoms: _283  and  _284
REMARK  124  A    between atoms: _289  and  _291
REMARK  125  A    between atoms: _291  and  _292
REMARK  126  A    between atoms: _291  and  _294
REMARK  127  A    between atoms: _294  and  _295
REMARK                            x       y       z     vdW  Elec       q    Type
REMARK                         _______ _______ _______ _____ _____    ______ ____
ROOT
ATOM      1  O   HOH     1      38.042  40.895  11.965  0.00  0.00    +0.000 OA
ENDROOT
TORSDOF 0
REMARK  Name = ../refined-set-2016/3djq/3djq_pocket.pdb
REMARK  127 active torsions:
REMARK  status: ('A' for Active; 'I' for Inactive)
REMARK    1  A    between atoms: _1  and  _3
REMARK    2  A    between atoms: _3  and  _4
REMARK    3  A    between atoms: _3  and  _6
REMARK    4  A    between atoms: _6  and  _7
REMARK    5  A    between atoms: _7  and  _8
REMARK    6  A    between atoms: _10  and  _12
REMARK    7  A    between atoms: _12  and  _13
REMARK    8  A    between atoms: _12  and  _15
REMARK    9  A    between atoms: _15  and  _16
REMARK   10  A    between atoms: _16  and  _17
REMARK   11  A    between atoms: _19  and  _21
REMARK   12  A    between atoms: _21  and  _22
REMARK   13  A    between atoms: _21  and  _24
REMARK   14  A    between atoms: _24  and  _25
REMARK   15  A    between atoms: _25  and  _26
REMARK   16  A    between atoms: _26  and  _27
REMARK   17  A    between atoms: _27  and  _28
REMARK   18  A    between atoms: _32  and  _34
REMARK   19  A    between atoms: _34  and  _35
REMARK   20  A    between atoms: _34  and  _37
REMARK   21  A    between atoms: _37  and  _38
REMARK   22  A    between atoms: _38  and  _39
REMARK   23  A    between atoms: _39  and  _40
REMARK   24  A    between atoms: _40  and  _41
REMARK   25  A    between atoms: _46  and  _47
REMARK   26  A    between atoms: _52  and  _54
REMARK   27  A    between atoms: _54  and  _55
REMARK   28  A    between atoms: _54  and  _57
REMARK   29  A    between atoms: _60  and  _62
REMARK   30  A    between atoms: _62  and  _63
REMARK   31  A    between atoms: _62  and  _65
REMARK   32  A    between atoms: _65  and  _66
REMARK   33  A    between atoms: _71  and  _73
REMARK   34  A    between atoms: _73  and  _74
REMARK   35  A    between atoms: _73  and  _76
REMARK   36  A    between atoms: _76  and  _77
REMARK   37  A    between atoms: _80  and  _82
REMARK   38  A    between atoms: _82  and  _83
REMARK   39  A    between atoms: _82  and  _85
REMARK   40  A    between atoms: _85  and  _86
REMARK   41  A    between atoms: _92  and  _94
REMARK   42  A    between atoms: _94  and  _95
REMARK   43  A    between atoms: _94  and  _97
REMARK   44  A    between atoms: _97  and  _98
REMARK   45  A    between atoms: _98  and  _99
REMARK   46  A    between atoms: _99  and  _100
REMARK   47  A    between atoms: _100  and  _101
REMARK   48  A    between atoms: _105  and  _107
REMARK   49  A    between atoms: _107  and  _108
REMARK   50  A    between atoms: _107  and  _110
REMARK   51  A    between atoms: _110  and  _111
REMARK   52  A    between atoms: _116  and  _118
REMARK   53  A    between atoms: _118  and  _119
REMARK   54  A    between atoms: _118  and  _121
REMARK   55  A    between atoms: _121  and  _122
REMARK   56  A    between atoms: _125  and  _127
REMARK   57  A    between atoms: _127  and  _128
REMARK   58  A    between atoms: _127  and  _130
REMARK   59  A    between atoms: _130  and  _131
REMARK   60  A    between atoms: _134  and  _136
REMARK   61  A    between atoms: _136  and  _137
REMARK   62  A    between atoms: _136  and  _139
REMARK   63  A    between atoms: _139  and  _140
REMARK   64  A    between atoms: _143  and  _145
REMARK   65  A    between atoms: _145  and  _146
REMARK   66  A    between atoms: _145  and  _148
REMARK   67  A    between atoms: _150  and  _152
REMARK   68  A    between atoms: _152  and  _153
REMARK   69  A    between atoms: _152  and  _155
REMARK   70  A    between atoms: _155  and  _156
REMARK   71  A    between atoms: _156  and  _157
REMARK   72  A    between atoms: _157  and  _158
REMARK   73  A    between atoms: _167  and  _169
REMARK   74  A    between atoms: _169  and  _170
REMARK   75  A    between atoms: _169  and  _172
REMARK   76  A    between atoms: _172  and  _173
REMARK   77  A    between atoms: _173  and  _174
REMARK   78  A    between atoms: _174  and  _175
REMARK   79  A    between atoms: _175  and  _176
REMARK   80  A    between atoms: _180  and  _182
REMARK   81  A    between atoms: _182  and  _183
REMARK   82  A    between atoms: _182  and  _185
REMARK   83  A    between atoms: _185  and  _186
REMARK   84  A    between atoms: _189  and  _191
REMARK   85  A    between atoms: _191  and  _192
REMARK   86  A    between atoms: _191  and  _194
REMARK   87  A    between atoms: _197  and  _199
REMARK   88  A    between atoms: _199  and  _200
REMARK   89  A    between atoms: _199  and  _202
REMARK   90  A    between atoms: _202  and  _203
REMARK   91  A    between atoms: _208  and  _210
REMARK   92  A    between atoms: _210  and  _211
REMARK   93  A    between atoms: _210  and  _213
REMARK   94  A    between atoms: _213  and  _214
REMARK   95  A    between atoms: _220  and  _222
REMARK   96  A    between atoms: _222  and  _223
REMARK   97  A    between atoms: _222  and  _225
REMARK   98  A    between atoms: _225  and  _226
REMARK   99  A    between atoms: _229  and  _231
REMARK  100  A    between atoms: _231  and  _232
REMARK  101  A    between atoms: _235  and  _237
REMARK  102  A    between atoms: _237  and  _238
REMARK  103  A    between atoms: _237  and  _240
REMARK  104  A    between atoms: _240  and  _241
REMARK  105  A    between atoms: _243  and  _245
REMARK  106  A    between atoms: _245  and  _246
REMARK  107  A    between atoms: _245  and  _248
REMARK  108  A    between atoms: _252  and  _254
REMARK  109  A    between atoms: _254  and  _255
REMARK  110  A    between atoms: _254  and  _257
REMARK  111  A    between atoms: _257  and  _258
REMARK  112  A    between atoms: _258  and  _259
REMARK  113  A    between atoms: _259  and  _260
REMARK  114  A    between atoms: _260  and  _261
REMARK  115  A    between atoms: _265  and  _267
REMARK  116  A    between atoms: _267  and  _268
REMARK  117  A    between atoms: _267  and  _270
REMARK  118  A    between atoms: _270  and  _271
REMARK  119  A    between atoms: _277  and  _279
REMARK  120  A    between atoms: _279  and  _280
REMARK  121  A    between atoms: _279  and  _282
REMARK  122  A    between atoms: _282  and  _283
REMARK  123  A    between atoms: _283  and  _284
REMARK  124  A    between atoms: _289  and  _291
REMARK  125  A    between atoms: _291  and  _292
REMARK  126  A    between atoms: _291  and  _294
REMARK  127  A    between atoms: _294  and  _295
REMARK                            x       y       z     vdW  Elec       q    Type
REMARK                         _______ _______ _______ _____ _____    ______ ____
ROOT
ATOM      1  O   HOH     1      27.402  41.402  12.823  0.00  0.00    +0.000 OA
ENDROOT
TORSDOF 0
REMARK  Name = ../refined-set-2016/3djq/3djq_pocket.pdb
REMARK  127 active torsions:
REMARK  status: ('A' for Active; 'I' for Inactive)
REMARK    1  A    between atoms: _1  and  _3
REMARK    2  A    between atoms: _3  and  _4
REMARK    3  A    between atoms: _3  and  _6
REMARK    4  A    between atoms: _6  and  _7
REMARK    5  A    between atoms: _7  and  _8
REMARK    6  A    between atoms: _10  and  _12
REMARK    7  A    between atoms: _12  and  _13
REMARK    8  A    between atoms: _12  and  _15
REMARK    9  A    between atoms: _15  and  _16
REMARK   10  A    between atoms: _16  and  _17
REMARK   11  A    between atoms: _19  and  _21
REMARK   12  A    between atoms: _21  and  _22
REMARK   13  A    between atoms: _21  and  _24
REMARK   14  A    between atoms: _24  and  _25
REMARK   15  A    between atoms: _25  and  _26
REMARK   16  A    between atoms: _26  and  _27
REMARK   17  A    between atoms: _27  and  _28
REMARK   18  A    between atoms: _32  and  _34
REMARK   19  A    between atoms: _34  and  _35
REMARK   20  A    between atoms: _34  and  _37
REMARK   21  A    between atoms: _37  and  _38
REMARK   22  A    between atoms: _38  and  _39
REMARK   23  A    between atoms: _39  and  _40
REMARK   24  A    between atoms: _40  and  _41
REMARK   25  A    between atoms: _46  and  _47
REMARK   26  A    between atoms: _52  and  _54
REMARK   27  A    between atoms: _54  and  _55
REMARK   28  A    between atoms: _54  and  _57
REMARK   29  A    between atoms: _60  and  _62
REMARK   30  A    between atoms: _62  and  _63
REMARK   31  A    between atoms: _62  and  _65
REMARK   32  A    between atoms: _65  and  _66
REMARK   33  A    between atoms: _71  and  _73
REMARK   34  A    between atoms: _73  and  _74
REMARK   35  A    between atoms: _73  and  _76
REMARK   36  A    between atoms: _76  and  _77
REMARK   37  A    between atoms: _80  and  _82
REMARK   38  A    between atoms: _82  and  _83
REMARK   39  A    between atoms: _82  and  _85
REMARK   40  A    between atoms: _85  and  _86
REMARK   41  A    between atoms: _92  and  _94
REMARK   42  A    between atoms: _94  and  _95
REMARK   43  A    between atoms: _94  and  _97
REMARK   44  A    between atoms: _97  and  _98
REMARK   45  A    between atoms: _98  and  _99
REMARK   46  A    between atoms: _99  and  _100
REMARK   47  A    between atoms: _100  and  _101
REMARK   48  A    between atoms: _105  and  _107
REMARK   49  A    between atoms: _107  and  _108
REMARK   50  A    between atoms: _107  and  _110
REMARK   51  A    between atoms: _110  and  _111
REMARK   52  A    between atoms: _116  and  _118
REMARK   53  A    between atoms: _118  and  _119
REMARK   54  A    between atoms: _118  and  _121
REMARK   55  A    between atoms: _121  and  _122
REMARK   56  A    between atoms: _125  and  _127
REMARK   57  A    between atoms: _127  and  _128
REMARK   58  A    between atoms: _127  and  _130
REMARK   59  A    between atoms: _130  and  _131
REMARK   60  A    between atoms: _134  and  _136
REMARK   61  A    between atoms: _136  and  _137
REMARK   62  A    between atoms: _136  and  _139
REMARK   63  A    between atoms: _139  and  _140
REMARK   64  A    between atoms: _143  and  _145
REMARK   65  A    between atoms: _145  and  _146
REMARK   66  A    between atoms: _145  and  _148
REMARK   67  A    between atoms: _150  and  _152
REMARK   68  A    between atoms: _152  and  _153
REMARK   69  A    between atoms: _152  and  _155
REMARK   70  A    between atoms: _155  and  _156
REMARK   71  A    between atoms: _156  and  _157
REMARK   72  A    between atoms: _157  and  _158
REMARK   73  A    between atoms: _167  and  _169
REMARK   74  A    between atoms: _169  and  _170
REMARK   75  A    between atoms: _169  and  _172
REMARK   76  A    between atoms: _172  and  _173
REMARK   77  A    between atoms: _173  and  _174
REMARK   78  A    between atoms: _174  and  _175
REMARK   79  A    between atoms: _175  and  _176
REMARK   80  A    between atoms: _180  and  _182
REMARK   81  A    between atoms: _182  and  _183
REMARK   82  A    between atoms: _182  and  _185
REMARK   83  A    between atoms: _185  and  _186
REMARK   84  A    between atoms: _189  and  _191
REMARK   85  A    between atoms: _191  and  _192
REMARK   86  A    between atoms: _191  and  _194
REMARK   87  A    between atoms: _197  and  _199
REMARK   88  A    between atoms: _199  and  _200
REMARK   89  A    between atoms: _199  and  _202
REMARK   90  A    between atoms: _202  and  _203
REMARK   91  A    between atoms: _208  and  _210
REMARK   92  A    between atoms: _210  and  _211
REMARK   93  A    between atoms: _210  and  _213
REMARK   94  A    between atoms: _213  and  _214
REMARK   95  A    between atoms: _220  and  _222
REMARK   96  A    between atoms: _222  and  _223
REMARK   97  A    between atoms: _222  and  _225
REMARK   98  A    between atoms: _225  and  _226
REMARK   99  A    between atoms: _229  and  _231
REMARK  100  A    between atoms: _231  and  _232
REMARK  101  A    between atoms: _235  and  _237
REMARK  102  A    between atoms: _237  and  _238
REMARK  103  A    between atoms: _237  and  _240
REMARK  104  A    between atoms: _240  and  _241
REMARK  105  A    between atoms: _243  and  _245
REMARK  106  A    between atoms: _245  and  _246
REMARK  107  A    between atoms: _245  and  _248
REMARK  108  A    between atoms: _252  and  _254
REMARK  109  A    between atoms: _254  and  _255
REMARK  110  A    between atoms: _254  and  _257
REMARK  111  A    between atoms: _257  and  _258
REMARK  112  A    between atoms: _258  and  _259
REMARK  113  A    between atoms: _259  and  _260
REMARK  114  A    between atoms: _260  and  _261
REMARK  115  A    between atoms: _265  and  _267
REMARK  116  A    between atoms: _267  and  _268
REMARK  117  A    between atoms: _267  and  _270
REMARK  118  A    between atoms: _270  and  _271
REMARK  119  A    between atoms: _277  and  _279
REMARK  120  A    between atoms: _279  and  _280
REMARK  121  A    between atoms: _279  and  _282
REMARK  122  A    between atoms: _282  and  _283
REMARK  123  A    between atoms: _283  and  _284
REMARK  124  A    between atoms: _289  and  _291
REMARK  125  A    between atoms: _291  and  _292
REMARK  126  A    between atoms: _291  and  _294
REMARK  127  A    between atoms: _294  and  _295
REMARK                            x       y       z     vdW  Elec       q    Type
REMARK                         _______ _______ _______ _____ _____    ______ ____
ROOT
ATOM      1  O   HOH     1      26.761  40.249  10.611  0.00  0.00    +0.000 OA
ENDROOT
TORSDOF 0
REMARK  Name = ../refined-set-2016/3djq/3djq_pocket.pdb
REMARK  127 active torsions:
REMARK  status: ('A' for Active; 'I' for Inactive)
REMARK    1  A    between atoms: _1  and  _3
REMARK    2  A    between atoms: _3  and  _4
REMARK    3  A    between atoms: _3  and  _6
REMARK    4  A    between atoms: _6  and  _7
REMARK    5  A    between atoms: _7  and  _8
REMARK    6  A    between atoms: _10  and  _12
REMARK    7  A    between atoms: _12  and  _13
REMARK    8  A    between atoms: _12  and  _15
REMARK    9  A    between atoms: _15  and  _16
REMARK   10  A    between atoms: _16  and  _17
REMARK   11  A    between atoms: _19  and  _21
REMARK   12  A    between atoms: _21  and  _22
REMARK   13  A    between atoms: _21  and  _24
REMARK   14  A    between atoms: _24  and  _25
REMARK   15  A    between atoms: _25  and  _26
REMARK   16  A    between atoms: _26  and  _27
REMARK   17  A    between atoms: _27  and  _28
REMARK   18  A    between atoms: _32  and  _34
REMARK   19  A    between atoms: _34  and  _35
REMARK   20  A    between atoms: _34  and  _37
REMARK   21  A    between atoms: _37  and  _38
REMARK   22  A    between atoms: _38  and  _39
REMARK   23  A    between atoms: _39  and  _40
REMARK   24  A    between atoms: _40  and  _41
REMARK   25  A    between atoms: _46  and  _47
REMARK   26  A    between atoms: _52  and  _54
REMARK   27  A    between atoms: _54  and  _55
REMARK   28  A    between atoms: _54  and  _57
REMARK   29  A    between atoms: _60  and  _62
REMARK   30  A    between atoms: _62  and  _63
REMARK   31  A    between atoms: _62  and  _65
REMARK   32  A    between atoms: _65  and  _66
REMARK   33  A    between atoms: _71  and  _73
REMARK   34  A    between atoms: _73  and  _74
REMARK   35  A    between atoms: _73  and  _76
REMARK   36  A    between atoms: _76  and  _77
REMARK   37  A    between atoms: _80  and  _82
REMARK   38  A    between atoms: _82  and  _83
REMARK   39  A    between atoms: _82  and  _85
REMARK   40  A    between atoms: _85  and  _86
REMARK   41  A    between atoms: _92  and  _94
REMARK   42  A    between atoms: _94  and  _95
REMARK   43  A    between atoms: _94  and  _97
REMARK   44  A    between atoms: _97  and  _98
REMARK   45  A    between atoms: _98  and  _99
REMARK   46  A    between atoms: _99  and  _100
REMARK   47  A    between atoms: _100  and  _101
REMARK   48  A    between atoms: _105  and  _107
REMARK   49  A    between atoms: _107  and  _108
REMARK   50  A    between atoms: _107  and  _110
REMARK   51  A    between atoms: _110  and  _111
REMARK   52  A    between atoms: _116  and  _118
REMARK   53  A    between atoms: _118  and  _119
REMARK   54  A    between atoms: _118  and  _121
REMARK   55  A    between atoms: _121  and  _122
REMARK   56  A    between atoms: _125  and  _127
REMARK   57  A    between atoms: _127  and  _128
REMARK   58  A    between atoms: _127  and  _130
REMARK   59  A    between atoms: _130  and  _131
REMARK   60  A    between atoms: _134  and  _136
REMARK   61  A    between atoms: _136  and  _137
REMARK   62  A    between atoms: _136  and  _139
REMARK   63  A    between atoms: _139  and  _140
REMARK   64  A    between atoms: _143  and  _145
REMARK   65  A    between atoms: _145  and  _146
REMARK   66  A    between atoms: _145  and  _148
REMARK   67  A    between atoms: _150  and  _152
REMARK   68  A    between atoms: _152  and  _153
REMARK   69  A    between atoms: _152  and  _155
REMARK   70  A    between atoms: _155  and  _156
REMARK   71  A    between atoms: _156  and  _157
REMARK   72  A    between atoms: _157  and  _158
REMARK   73  A    between atoms: _167  and  _169
REMARK   74  A    between atoms: _169  and  _170
REMARK   75  A    between atoms: _169  and  _172
REMARK   76  A    between atoms: _172  and  _173
REMARK   77  A    between atoms: _173  and  _174
REMARK   78  A    between atoms: _174  and  _175
REMARK   79  A    between atoms: _175  and  _176
REMARK   80  A    between atoms: _180  and  _182
REMARK   81  A    between atoms: _182  and  _183
REMARK   82  A    between atoms: _182  and  _185
REMARK   83  A    between atoms: _185  and  _186
REMARK   84  A    between atoms: _189  and  _191
REMARK   85  A    between atoms: _191  and  _192
REMARK   86  A    between atoms: _191  and  _194
REMARK   87  A    between atoms: _197  and  _199
REMARK   88  A    between atoms: _199  and  _200
REMARK   89  A    between atoms: _199  and  _202
REMARK   90  A    between atoms: _202  and  _203
REMARK   91  A    between atoms: _208  and  _210
REMARK   92  A    between atoms: _210  and  _211
REMARK   93  A    between atoms: _210  and  _213
REMARK   94  A    between atoms: _213  and  _214
REMARK   95  A    between atoms: _220  and  _222
REMARK   96  A    between atoms: _222  and  _223
REMARK   97  A    between atoms: _222  and  _225
REMARK   98  A    between atoms: _225  and  _226
REMARK   99  A    between atoms: _229  and  _231
REMARK  100  A    between atoms: _231  and  _232
REMARK  101  A    between atoms: _235  and  _237
REMARK  102  A    between atoms: _237  and  _238
REMARK  103  A    between atoms: _237  and  _240
REMARK  104  A    between atoms: _240  and  _241
REMARK  105  A    between atoms: _243  and  _245
REMARK  106  A    between atoms: _245  and  _246
REMARK  107  A    between atoms: _245  and  _248
REMARK  108  A    between atoms: _252  and  _254
REMARK  109  A    between atoms: _254  and  _255
REMARK  110  A    between atoms: _254  and  _257
REMARK  111  A    between atoms: _257  and  _258
REMARK  112  A    between atoms: _258  and  _259
REMARK  113  A    between atoms: _259  and  _260
REMARK  114  A    between atoms: _260  and  _261
REMARK  115  A    between atoms: _265  and  _267
REMARK  116  A    between atoms: _267  and  _268
REMARK  117  A    between atoms: _267  and  _270
REMARK  118  A    between atoms: _270  and  _271
REMARK  119  A    between atoms: _277  and  _279
REMARK  120  A    between atoms: _279  and  _280
REMARK  121  A    between atoms: _279  and  _282
REMARK  122  A    between atoms: _282  and  _283
REMARK  123  A    between atoms: _283  and  _284
REMARK  124  A    between atoms: _289  and  _291
REMARK  125  A    between atoms: _291  and  _292
REMARK  126  A    between atoms: _291  and  _294
REMARK  127  A    between atoms: _294  and  _295
REMARK                            x       y       z     vdW  Elec       q    Type
REMARK                         _______ _______ _______ _____ _____    ______ ____
ROOT
ATOM      1  O   HOH     1      26.307  43.179   9.431  0.00  0.00    +0.000 OA
ENDROOT
TORSDOF 0
REMARK  Name = ../refined-set-2016/3djq/3djq_pocket.pdb
REMARK  127 active torsions:
REMARK  status: ('A' for Active; 'I' for Inactive)
REMARK    1  A    between atoms: _1  and  _3
REMARK    2  A    between atoms: _3  and  _4
REMARK    3  A    between atoms: _3  and  _6
REMARK    4  A    between atoms: _6  and  _7
REMARK    5  A    between atoms: _7  and  _8
REMARK    6  A    between atoms: _10  and  _12
REMARK    7  A    between atoms: _12  and  _13
REMARK    8  A    between atoms: _12  and  _15
REMARK    9  A    between atoms: _15  and  _16
REMARK   10  A    between atoms: _16  and  _17
REMARK   11  A    between atoms: _19  and  _21
REMARK   12  A    between atoms: _21  and  _22
REMARK   13  A    between atoms: _21  and  _24
REMARK   14  A    between atoms: _24  and  _25
REMARK   15  A    between atoms: _25  and  _26
REMARK   16  A    between atoms: _26  and  _27
REMARK   17  A    between atoms: _27  and  _28
REMARK   18  A    between atoms: _32  and  _34
REMARK   19  A    between atoms: _34  and  _35
REMARK   20  A    between atoms: _34  and  _37
REMARK   21  A    between atoms: _37  and  _38
REMARK   22  A    between atoms: _38  and  _39
REMARK   23  A    between atoms: _39  and  _40
REMARK   24  A    between atoms: _40  and  _41
REMARK   25  A    between atoms: _46  and  _47
REMARK   26  A    between atoms: _52  and  _54
REMARK   27  A    between atoms: _54  and  _55
REMARK   28  A    between atoms: _54  and  _57
REMARK   29  A    between atoms: _60  and  _62
REMARK   30  A    between atoms: _62  and  _63
REMARK   31  A    between atoms: _62  and  _65
REMARK   32  A    between atoms: _65  and  _66
REMARK   33  A    between atoms: _71  and  _73
REMARK   34  A    between atoms: _73  and  _74
REMARK   35  A    between atoms: _73  and  _76
REMARK   36  A    between atoms: _76  and  _77
REMARK   37  A    between atoms: _80  and  _82
REMARK   38  A    between atoms: _82  and  _83
REMARK   39  A    between atoms: _82  and  _85
REMARK   40  A    between atoms: _85  and  _86
REMARK   41  A    between atoms: _92  and  _94
REMARK   42  A    between atoms: _94  and  _95
REMARK   43  A    between atoms: _94  and  _97
REMARK   44  A    between atoms: _97  and  _98
REMARK   45  A    between atoms: _98  and  _99
REMARK   46  A    between atoms: _99  and  _100
REMARK   47  A    between atoms: _100  and  _101
REMARK   48  A    between atoms: _105  and  _107
REMARK   49  A    between atoms: _107  and  _108
REMARK   50  A    between atoms: _107  and  _110
REMARK   51  A    between atoms: _110  and  _111
REMARK   52  A    between atoms: _116  and  _118
REMARK   53  A    between atoms: _118  and  _119
REMARK   54  A    between atoms: _118  and  _121
REMARK   55  A    between atoms: _121  and  _122
REMARK   56  A    between atoms: _125  and  _127
REMARK   57  A    between atoms: _127  and  _128
REMARK   58  A    between atoms: _127  and  _130
REMARK   59  A    between atoms: _130  and  _131
REMARK   60  A    between atoms: _134  and  _136
REMARK   61  A    between atoms: _136  and  _137
REMARK   62  A    between atoms: _136  and  _139
REMARK   63  A    between atoms: _139  and  _140
REMARK   64  A    between atoms: _143  and  _145
REMARK   65  A    between atoms: _145  and  _146
REMARK   66  A    between atoms: _145  and  _148
REMARK   67  A    between atoms: _150  and  _152
REMARK   68  A    between atoms: _152  and  _153
REMARK   69  A    between atoms: _152  and  _155
REMARK   70  A    between atoms: _155  and  _156
REMARK   71  A    between atoms: _156  and  _157
REMARK   72  A    between atoms: _157  and  _158
REMARK   73  A    between atoms: _167  and  _169
REMARK   74  A    between atoms: _169  and  _170
REMARK   75  A    between atoms: _169  and  _172
REMARK   76  A    between atoms: _172  and  _173
REMARK   77  A    between atoms: _173  and  _174
REMARK   78  A    between atoms: _174  and  _175
REMARK   79  A    between atoms: _175  and  _176
REMARK   80  A    between atoms: _180  and  _182
REMARK   81  A    between atoms: _182  and  _183
REMARK   82  A    between atoms: _182  and  _185
REMARK   83  A    between atoms: _185  and  _186
REMARK   84  A    between atoms: _189  and  _191
REMARK   85  A    between atoms: _191  and  _192
REMARK   86  A    between atoms: _191  and  _194
REMARK   87  A    between atoms: _197  and  _199
REMARK   88  A    between atoms: _199  and  _200
REMARK   89  A    between atoms: _199  and  _202
REMARK   90  A    between atoms: _202  and  _203
REMARK   91  A    between atoms: _208  and  _210
REMARK   92  A    between atoms: _210  and  _211
REMARK   93  A    between atoms: _210  and  _213
REMARK   94  A    between atoms: _213  and  _214
REMARK   95  A    between atoms: _220  and  _222
REMARK   96  A    between atoms: _222  and  _223
REMARK   97  A    between atoms: _222  and  _225
REMARK   98  A    between atoms: _225  and  _226
REMARK   99  A    between atoms: _229  and  _231
REMARK  100  A    between atoms: _231  and  _232
REMARK  101  A    between atoms: _235  and  _237
REMARK  102  A    between atoms: _237  and  _238
REMARK  103  A    between atoms: _237  and  _240
REMARK  104  A    between atoms: _240  and  _241
REMARK  105  A    between atoms: _243  and  _245
REMARK  106  A    between atoms: _245  and  _246
REMARK  107  A    between atoms: _245  and  _248
REMARK  108  A    between atoms: _252  and  _254
REMARK  109  A    between atoms: _254  and  _255
REMARK  110  A    between atoms: _254  and  _257
REMARK  111  A    between atoms: _257  and  _258
REMARK  112  A    between atoms: _258  and  _259
REMARK  113  A    between atoms: _259  and  _260
REMARK  114  A    between atoms: _260  and  _261
REMARK  115  A    between atoms: _265  and  _267
REMARK  116  A    between atoms: _267  and  _268
REMARK  117  A    between atoms: _267  and  _270
REMARK  118  A    between atoms: _270  and  _271
REMARK  119  A    between atoms: _277  and  _279
REMARK  120  A    between atoms: _279  and  _280
REMARK  121  A    between atoms: _279  and  _282
REMARK  122  A    between atoms: _282  and  _283
REMARK  123  A    between atoms: _283  and  _284
REMARK  124  A    between atoms: _289  and  _291
REMARK  125  A    between atoms: _291  and  _292
REMARK  126  A    between atoms: _291  and  _294
REMARK  127  A    between atoms: _294  and  _295
REMARK                            x       y       z     vdW  Elec       q    Type
REMARK                         _______ _______ _______ _____ _____    ______ ____
ROOT
ATOM      1  O   HOH     1      29.882  47.693   8.039  0.00  0.00    +0.000 OA
ENDROOT
TORSDOF 0
REMARK  Name = ../refined-set-2016/3djq/3djq_pocket.pdb
REMARK  127 active torsions:
REMARK  status: ('A' for Active; 'I' for Inactive)
REMARK    1  A    between atoms: _1  and  _3
REMARK    2  A    between atoms: _3  and  _4
REMARK    3  A    between atoms: _3  and  _6
REMARK    4  A    between atoms: _6  and  _7
REMARK    5  A    between atoms: _7  and  _8
REMARK    6  A    between atoms: _10  and  _12
REMARK    7  A    between atoms: _12  and  _13
REMARK    8  A    between atoms: _12  and  _15
REMARK    9  A    between atoms: _15  and  _16
REMARK   10  A    between atoms: _16  and  _17
REMARK   11  A    between atoms: _19  and  _21
REMARK   12  A    between atoms: _21  and  _22
REMARK   13  A    between atoms: _21  and  _24
REMARK   14  A    between atoms: _24  and  _25
REMARK   15  A    between atoms: _25  and  _26
REMARK   16  A    between atoms: _26  and  _27
REMARK   17  A    between atoms: _27  and  _28
REMARK   18  A    between atoms: _32  and  _34
REMARK   19  A    between atoms: _34  and  _35
REMARK   20  A    between atoms: _34  and  _37
REMARK   21  A    between atoms: _37  and  _38
REMARK   22  A    between atoms: _38  and  _39
REMARK   23  A    between atoms: _39  and  _40
REMARK   24  A    between atoms: _40  and  _41
REMARK   25  A    between atoms: _46  and  _47
REMARK   26  A    between atoms: _52  and  _54
REMARK   27  A    between atoms: _54  and  _55
REMARK   28  A    between atoms: _54  and  _57
REMARK   29  A    between atoms: _60  and  _62
REMARK   30  A    between atoms: _62  and  _63
REMARK   31  A    between atoms: _62  and  _65
REMARK   32  A    between atoms: _65  and  _66
REMARK   33  A    between atoms: _71  and  _73
REMARK   34  A    between atoms: _73  and  _74
REMARK   35  A    between atoms: _73  and  _76
REMARK   36  A    between atoms: _76  and  _77
REMARK   37  A    between atoms: _80  and  _82
REMARK   38  A    between atoms: _82  and  _83
REMARK   39  A    between atoms: _82  and  _85
REMARK   40  A    between atoms: _85  and  _86
REMARK   41  A    between atoms: _92  and  _94
REMARK   42  A    between atoms: _94  and  _95
REMARK   43  A    between atoms: _94  and  _97
REMARK   44  A    between atoms: _97  and  _98
REMARK   45  A    between atoms: _98  and  _99
REMARK   46  A    between atoms: _99  and  _100
REMARK   47  A    between atoms: _100  and  _101
REMARK   48  A    between atoms: _105  and  _107
REMARK   49  A    between atoms: _107  and  _108
REMARK   50  A    between atoms: _107  and  _110
REMARK   51  A    between atoms: _110  and  _111
REMARK   52  A    between atoms: _116  and  _118
REMARK   53  A    between atoms: _118  and  _119
REMARK   54  A    between atoms: _118  and  _121
REMARK   55  A    between atoms: _121  and  _122
REMARK   56  A    between atoms: _125  and  _127
REMARK   57  A    between atoms: _127  and  _128
REMARK   58  A    between atoms: _127  and  _130
REMARK   59  A    between atoms: _130  and  _131
REMARK   60  A    between atoms: _134  and  _136
REMARK   61  A    between atoms: _136  and  _137
REMARK   62  A    between atoms: _136  and  _139
REMARK   63  A    between atoms: _139  and  _140
REMARK   64  A    between atoms: _143  and  _145
REMARK   65  A    between atoms: _145  and  _146
REMARK   66  A    between atoms: _145  and  _148
REMARK   67  A    between atoms: _150  and  _152
REMARK   68  A    between atoms: _152  and  _153
REMARK   69  A    between atoms: _152  and  _155
REMARK   70  A    between atoms: _155  and  _156
REMARK   71  A    between atoms: _156  and  _157
REMARK   72  A    between atoms: _157  and  _158
REMARK   73  A    between atoms: _167  and  _169
REMARK   74  A    between atoms: _169  and  _170
REMARK   75  A    between atoms: _169  and  _172
REMARK   76  A    between atoms: _172  and  _173
REMARK   77  A    between atoms: _173  and  _174
REMARK   78  A    between atoms: _174  and  _175
REMARK   79  A    between atoms: _175  and  _176
REMARK   80  A    between atoms: _180  and  _182
REMARK   81  A    between atoms: _182  and  _183
REMARK   82  A    between atoms: _182  and  _185
REMARK   83  A    between atoms: _185  and  _186
REMARK   84  A    between atoms: _189  and  _191
REMARK   85  A    between atoms: _191  and  _192
REMARK   86  A    between atoms: _191  and  _194
REMARK   87  A    between atoms: _197  and  _199
REMARK   88  A    between atoms: _199  and  _200
REMARK   89  A    between atoms: _199  and  _202
REMARK   90  A    between atoms: _202  and  _203
REMARK   91  A    between atoms: _208  and  _210
REMARK   92  A    between atoms: _210  and  _211
REMARK   93  A    between atoms: _210  and  _213
REMARK   94  A    between atoms: _213  and  _214
REMARK   95  A    between atoms: _220  and  _222
REMARK   96  A    between atoms: _222  and  _223
REMARK   97  A    between atoms: _222  and  _225
REMARK   98  A    between atoms: _225  and  _226
REMARK   99  A    between atoms: _229  and  _231
REMARK  100  A    between atoms: _231  and  _232
REMARK  101  A    between atoms: _235  and  _237
REMARK  102  A    between atoms: _237  and  _238
REMARK  103  A    between atoms: _237  and  _240
REMARK  104  A    between atoms: _240  and  _241
REMARK  105  A    between atoms: _243  and  _245
REMARK  106  A    between atoms: _245  and  _246
REMARK  107  A    between atoms: _245  and  _248
REMARK  108  A    between atoms: _252  and  _254
REMARK  109  A    between atoms: _254  and  _255
REMARK  110  A    between atoms: _254  and  _257
REMARK  111  A    between atoms: _257  and  _258
REMARK  112  A    between atoms: _258  and  _259
REMARK  113  A    between atoms: _259  and  _260
REMARK  114  A    between atoms: _260  and  _261
REMARK  115  A    between atoms: _265  and  _267
REMARK  116  A    between atoms: _267  and  _268
REMARK  117  A    between atoms: _267  and  _270
REMARK  118  A    between atoms: _270  and  _271
REMARK  119  A    between atoms: _277  and  _279
REMARK  120  A    between atoms: _279  and  _280
REMARK  121  A    between atoms: _279  and  _282
REMARK  122  A    between atoms: _282  and  _283
REMARK  123  A    between atoms: _283  and  _284
REMARK  124  A    between atoms: _289  and  _291
REMARK  125  A    between atoms: _291  and  _292
REMARK  126  A    between atoms: _291  and  _294
REMARK  127  A    between atoms: _294  and  _295
REMARK                            x       y       z     vdW  Elec       q    Type
REMARK                         _______ _______ _______ _____ _____    ______ ____
ROOT
ATOM      1  O   HOH     1      26.765  44.161   3.664  0.00  0.00    +0.000 OA
ENDROOT
TORSDOF 0
REMARK  Name = ../refined-set-2016/3djq/3djq_pocket.pdb
REMARK  127 active torsions:
REMARK  status: ('A' for Active; 'I' for Inactive)
REMARK    1  A    between atoms: _1  and  _3
REMARK    2  A    between atoms: _3  and  _4
REMARK    3  A    between atoms: _3  and  _6
REMARK    4  A    between atoms: _6  and  _7
REMARK    5  A    between atoms: _7  and  _8
REMARK    6  A    between atoms: _10  and  _12
REMARK    7  A    between atoms: _12  and  _13
REMARK    8  A    between atoms: _12  and  _15
REMARK    9  A    between atoms: _15  and  _16
REMARK   10  A    between atoms: _16  and  _17
REMARK   11  A    between atoms: _19  and  _21
REMARK   12  A    between atoms: _21  and  _22
REMARK   13  A    between atoms: _21  and  _24
REMARK   14  A    between atoms: _24  and  _25
REMARK   15  A    between atoms: _25  and  _26
REMARK   16  A    between atoms: _26  and  _27
REMARK   17  A    between atoms: _27  and  _28
REMARK   18  A    between atoms: _32  and  _34
REMARK   19  A    between atoms: _34  and  _35
REMARK   20  A    between atoms: _34  and  _37
REMARK   21  A    between atoms: _37  and  _38
REMARK   22  A    between atoms: _38  and  _39
REMARK   23  A    between atoms: _39  and  _40
REMARK   24  A    between atoms: _40  and  _41
REMARK   25  A    between atoms: _46  and  _47
REMARK   26  A    between atoms: _52  and  _54
REMARK   27  A    between atoms: _54  and  _55
REMARK   28  A    between atoms: _54  and  _57
REMARK   29  A    between atoms: _60  and  _62
REMARK   30  A    between atoms: _62  and  _63
REMARK   31  A    between atoms: _62  and  _65
REMARK   32  A    between atoms: _65  and  _66
REMARK   33  A    between atoms: _71  and  _73
REMARK   34  A    between atoms: _73  and  _74
REMARK   35  A    between atoms: _73  and  _76
REMARK   36  A    between atoms: _76  and  _77
REMARK   37  A    between atoms: _80  and  _82
REMARK   38  A    between atoms: _82  and  _83
REMARK   39  A    between atoms: _82  and  _85
REMARK   40  A    between atoms: _85  and  _86
REMARK   41  A    between atoms: _92  and  _94
REMARK   42  A    between atoms: _94  and  _95
REMARK   43  A    between atoms: _94  and  _97
REMARK   44  A    between atoms: _97  and  _98
REMARK   45  A    between atoms: _98  and  _99
REMARK   46  A    between atoms: _99  and  _100
REMARK   47  A    between atoms: _100  and  _101
REMARK   48  A    between atoms: _105  and  _107
REMARK   49  A    between atoms: _107  and  _108
REMARK   50  A    between atoms: _107  and  _110
REMARK   51  A    between atoms: _110  and  _111
REMARK   52  A    between atoms: _116  and  _118
REMARK   53  A    between atoms: _118  and  _119
REMARK   54  A    between atoms: _118  and  _121
REMARK   55  A    between atoms: _121  and  _122
REMARK   56  A    between atoms: _125  and  _127
REMARK   57  A    between atoms: _127  and  _128
REMARK   58  A    between atoms: _127  and  _130
REMARK   59  A    between atoms: _130  and  _131
REMARK   60  A    between atoms: _134  and  _136
REMARK   61  A    between atoms: _136  and  _137
REMARK   62  A    between atoms: _136  and  _139
REMARK   63  A    between atoms: _139  and  _140
REMARK   64  A    between atoms: _143  and  _145
REMARK   65  A    between atoms: _145  and  _146
REMARK   66  A    between atoms: _145  and  _148
REMARK   67  A    between atoms: _150  and  _152
REMARK   68  A    between atoms: _152  and  _153
REMARK   69  A    between atoms: _152  and  _155
REMARK   70  A    between atoms: _155  and  _156
REMARK   71  A    between atoms: _156  and  _157
REMARK   72  A    between atoms: _157  and  _158
REMARK   73  A    between atoms: _167  and  _169
REMARK   74  A    between atoms: _169  and  _170
REMARK   75  A    between atoms: _169  and  _172
REMARK   76  A    between atoms: _172  and  _173
REMARK   77  A    between atoms: _173  and  _174
REMARK   78  A    between atoms: _174  and  _175
REMARK   79  A    between atoms: _175  and  _176
REMARK   80  A    between atoms: _180  and  _182
REMARK   81  A    between atoms: _182  and  _183
REMARK   82  A    between atoms: _182  and  _185
REMARK   83  A    between atoms: _185  and  _186
REMARK   84  A    between atoms: _189  and  _191
REMARK   85  A    between atoms: _191  and  _192
REMARK   86  A    between atoms: _191  and  _194
REMARK   87  A    between atoms: _197  and  _199
REMARK   88  A    between atoms: _199  and  _200
REMARK   89  A    between atoms: _199  and  _202
REMARK   90  A    between atoms: _202  and  _203
REMARK   91  A    between atoms: _208  and  _210
REMARK   92  A    between atoms: _210  and  _211
REMARK   93  A    between atoms: _210  and  _213
REMARK   94  A    between atoms: _213  and  _214
REMARK   95  A    between atoms: _220  and  _222
REMARK   96  A    between atoms: _222  and  _223
REMARK   97  A    between atoms: _222  and  _225
REMARK   98  A    between atoms: _225  and  _226
REMARK   99  A    between atoms: _229  and  _231
REMARK  100  A    between atoms: _231  and  _232
REMARK  101  A    between atoms: _235  and  _237
REMARK  102  A    between atoms: _237  and  _238
REMARK  103  A    between atoms: _237  and  _240
REMARK  104  A    between atoms: _240  and  _241
REMARK  105  A    between atoms: _243  and  _245
REMARK  106  A    between atoms: _245  and  _246
REMARK  107  A    between atoms: _245  and  _248
REMARK  108  A    between atoms: _252  and  _254
REMARK  109  A    between atoms: _254  and  _255
REMARK  110  A    between atoms: _254  and  _257
REMARK  111  A    between atoms: _257  and  _258
REMARK  112  A    between atoms: _258  and  _259
REMARK  113  A    between atoms: _259  and  _260
REMARK  114  A    between atoms: _260  and  _261
REMARK  115  A    between atoms: _265  and  _267
REMARK  116  A    between atoms: _267  and  _268
REMARK  117  A    between atoms: _267  and  _270
REMARK  118  A    between atoms: _270  and  _271
REMARK  119  A    between atoms: _277  and  _279
REMARK  120  A    between atoms: _279  and  _280
REMARK  121  A    between atoms: _279  and  _282
REMARK  122  A    between atoms: _282  and  _283
REMARK  123  A    between atoms: _283  and  _284
REMARK  124  A    between atoms: _289  and  _291
REMARK  125  A    between atoms: _291  and  _292
REMARK  126  A    between atoms: _291  and  _294
REMARK  127  A    between atoms: _294  and  _295
REMARK                            x       y       z     vdW  Elec       q    Type
REMARK                         _______ _______ _______ _____ _____    ______ ____
ROOT
ATOM      1  O   HOH     1      30.171  42.774   1.122  0.00  0.00    +0.000 OA
ENDROOT
TORSDOF 0
REMARK  Name = ../refined-set-2016/3djq/3djq_pocket.pdb
REMARK  127 active torsions:
REMARK  status: ('A' for Active; 'I' for Inactive)
REMARK    1  A    between atoms: _1  and  _3
REMARK    2  A    between atoms: _3  and  _4
REMARK    3  A    between atoms: _3  and  _6
REMARK    4  A    between atoms: _6  and  _7
REMARK    5  A    between atoms: _7  and  _8
REMARK    6  A    between atoms: _10  and  _12
REMARK    7  A    between atoms: _12  and  _13
REMARK    8  A    between atoms: _12  and  _15
REMARK    9  A    between atoms: _15  and  _16
REMARK   10  A    between atoms: _16  and  _17
REMARK   11  A    between atoms: _19  and  _21
REMARK   12  A    between atoms: _21  and  _22
REMARK   13  A    between atoms: _21  and  _24
REMARK   14  A    between atoms: _24  and  _25
REMARK   15  A    between atoms: _25  and  _26
REMARK   16  A    between atoms: _26  and  _27
REMARK   17  A    between atoms: _27  and  _28
REMARK   18  A    between atoms: _32  and  _34
REMARK   19  A    between atoms: _34  and  _35
REMARK   20  A    between atoms: _34  and  _37
REMARK   21  A    between atoms: _37  and  _38
REMARK   22  A    between atoms: _38  and  _39
REMARK   23  A    between atoms: _39  and  _40
REMARK   24  A    between atoms: _40  and  _41
REMARK   25  A    between atoms: _46  and  _47
REMARK   26  A    between atoms: _52  and  _54
REMARK   27  A    between atoms: _54  and  _55
REMARK   28  A    between atoms: _54  and  _57
REMARK   29  A    between atoms: _60  and  _62
REMARK   30  A    between atoms: _62  and  _63
REMARK   31  A    between atoms: _62  and  _65
REMARK   32  A    between atoms: _65  and  _66
REMARK   33  A    between atoms: _71  and  _73
REMARK   34  A    between atoms: _73  and  _74
REMARK   35  A    between atoms: _73  and  _76
REMARK   36  A    between atoms: _76  and  _77
REMARK   37  A    between atoms: _80  and  _82
REMARK   38  A    between atoms: _82  and  _83
REMARK   39  A    between atoms: _82  and  _85
REMARK   40  A    between atoms: _85  and  _86
REMARK   41  A    between atoms: _92  and  _94
REMARK   42  A    between atoms: _94  and  _95
REMARK   43  A    between atoms: _94  and  _97
REMARK   44  A    between atoms: _97  and  _98
REMARK   45  A    between atoms: _98  and  _99
REMARK   46  A    between atoms: _99  and  _100
REMARK   47  A    between atoms: _100  and  _101
REMARK   48  A    between atoms: _105  and  _107
REMARK   49  A    between atoms: _107  and  _108
REMARK   50  A    between atoms: _107  and  _110
REMARK   51  A    between atoms: _110  and  _111
REMARK   52  A    between atoms: _116  and  _118
REMARK   53  A    between atoms: _118  and  _119
REMARK   54  A    between atoms: _118  and  _121
REMARK   55  A    between atoms: _121  and  _122
REMARK   56  A    between atoms: _125  and  _127
REMARK   57  A    between atoms: _127  and  _128
REMARK   58  A    between atoms: _127  and  _130
REMARK   59  A    between atoms: _130  and  _131
REMARK   60  A    between atoms: _134  and  _136
REMARK   61  A    between atoms: _136  and  _137
REMARK   62  A    between atoms: _136  and  _139
REMARK   63  A    between atoms: _139  and  _140
REMARK   64  A    between atoms: _143  and  _145
REMARK   65  A    between atoms: _145  and  _146
REMARK   66  A    between atoms: _145  and  _148
REMARK   67  A    between atoms: _150  and  _152
REMARK   68  A    between atoms: _152  and  _153
REMARK   69  A    between atoms: _152  and  _155
REMARK   70  A    between atoms: _155  and  _156
REMARK   71  A    between atoms: _156  and  _157
REMARK   72  A    between atoms: _157  and  _158
REMARK   73  A    between atoms: _167  and  _169
REMARK   74  A    between atoms: _169  and  _170
REMARK   75  A    between atoms: _169  and  _172
REMARK   76  A    between atoms: _172  and  _173
REMARK   77  A    between atoms: _173  and  _174
REMARK   78  A    between atoms: _174  and  _175
REMARK   79  A    between atoms: _175  and  _176
REMARK   80  A    between atoms: _180  and  _182
REMARK   81  A    between atoms: _182  and  _183
REMARK   82  A    between atoms: _182  and  _185
REMARK   83  A    between atoms: _185  and  _186
REMARK   84  A    between atoms: _189  and  _191
REMARK   85  A    between atoms: _191  and  _192
REMARK   86  A    between atoms: _191  and  _194
REMARK   87  A    between atoms: _197  and  _199
REMARK   88  A    between atoms: _199  and  _200
REMARK   89  A    between atoms: _199  and  _202
REMARK   90  A    between atoms: _202  and  _203
REMARK   91  A    between atoms: _208  and  _210
REMARK   92  A    between atoms: _210  and  _211
REMARK   93  A    between atoms: _210  and  _213
REMARK   94  A    between atoms: _213  and  _214
REMARK   95  A    between atoms: _220  and  _222
REMARK   96  A    between atoms: _222  and  _223
REMARK   97  A    between atoms: _222  and  _225
REMARK   98  A    between atoms: _225  and  _226
REMARK   99  A    between atoms: _229  and  _231
REMARK  100  A    between atoms: _231  and  _232
REMARK  101  A    between atoms: _235  and  _237
REMARK  102  A    between atoms: _237  and  _238
REMARK  103  A    between atoms: _237  and  _240
REMARK  104  A    between atoms: _240  and  _241
REMARK  105  A    between atoms: _243  and  _245
REMARK  106  A    between atoms: _245  and  _246
REMARK  107  A    between atoms: _245  and  _248
REMARK  108  A    between atoms: _252  and  _254
REMARK  109  A    between atoms: _254  and  _255
REMARK  110  A    between atoms: _254  and  _257
REMARK  111  A    between atoms: _257  and  _258
REMARK  112  A    between atoms: _258  and  _259
REMARK  113  A    between atoms: _259  and  _260
REMARK  114  A    between atoms: _260  and  _261
REMARK  115  A    between atoms: _265  and  _267
REMARK  116  A    between atoms: _267  and  _268
REMARK  117  A    between atoms: _267  and  _270
REMARK  118  A    between atoms: _270  and  _271
REMARK  119  A    between atoms: _277  and  _279
REMARK  120  A    between atoms: _279  and  _280
REMARK  121  A    between atoms: _279  and  _282
REMARK  122  A    between atoms: _282  and  _283
REMARK  123  A    between atoms: _283  and  _284
REMARK  124  A    between atoms: _289  and  _291
REMARK  125  A    between atoms: _291  and  _292
REMARK  126  A    between atoms: _291  and  _294
REMARK  127  A    between atoms: _294  and  _295
REMARK                            x       y       z     vdW  Elec       q    Type
REMARK                         _______ _______ _______ _____ _____    ______ ____
ROOT
ATOM      1  O   HOH     1      27.922  42.909  -0.760  0.00  0.00    +0.000 OA
ENDROOT
TORSDOF 0
REMARK  Name = ../refined-set-2016/3djq/3djq_pocket.pdb
REMARK  127 active torsions:
REMARK  status: ('A' for Active; 'I' for Inactive)
REMARK    1  A    between atoms: _1  and  _3
REMARK    2  A    between atoms: _3  and  _4
REMARK    3  A    between atoms: _3  and  _6
REMARK    4  A    between atoms: _6  and  _7
REMARK    5  A    between atoms: _7  and  _8
REMARK    6  A    between atoms: _10  and  _12
REMARK    7  A    between atoms: _12  and  _13
REMARK    8  A    between atoms: _12  and  _15
REMARK    9  A    between atoms: _15  and  _16
REMARK   10  A    between atoms: _16  and  _17
REMARK   11  A    between atoms: _19  and  _21
REMARK   12  A    between atoms: _21  and  _22
REMARK   13  A    between atoms: _21  and  _24
REMARK   14  A    between atoms: _24  and  _25
REMARK   15  A    between atoms: _25  and  _26
REMARK   16  A    between atoms: _26  and  _27
REMARK   17  A    between atoms: _27  and  _28
REMARK   18  A    between atoms: _32  and  _34
REMARK   19  A    between atoms: _34  and  _35
REMARK   20  A    between atoms: _34  and  _37
REMARK   21  A    between atoms: _37  and  _38
REMARK   22  A    between atoms: _38  and  _39
REMARK   23  A    between atoms: _39  and  _40
REMARK   24  A    between atoms: _40  and  _41
REMARK   25  A    between atoms: _46  and  _47
REMARK   26  A    between atoms: _52  and  _54
REMARK   27  A    between atoms: _54  and  _55
REMARK   28  A    between atoms: _54  and  _57
REMARK   29  A    between atoms: _60  and  _62
REMARK   30  A    between atoms: _62  and  _63
REMARK   31  A    between atoms: _62  and  _65
REMARK   32  A    between atoms: _65  and  _66
REMARK   33  A    between atoms: _71  and  _73
REMARK   34  A    between atoms: _73  and  _74
REMARK   35  A    between atoms: _73  and  _76
REMARK   36  A    between atoms: _76  and  _77
REMARK   37  A    between atoms: _80  and  _82
REMARK   38  A    between atoms: _82  and  _83
REMARK   39  A    between atoms: _82  and  _85
REMARK   40  A    between atoms: _85  and  _86
REMARK   41  A    between atoms: _92  and  _94
REMARK   42  A    between atoms: _94  and  _95
REMARK   43  A    between atoms: _94  and  _97
REMARK   44  A    between atoms: _97  and  _98
REMARK   45  A    between atoms: _98  and  _99
REMARK   46  A    between atoms: _99  and  _100
REMARK   47  A    between atoms: _100  and  _101
REMARK   48  A    between atoms: _105  and  _107
REMARK   49  A    between atoms: _107  and  _108
REMARK   50  A    between atoms: _107  and  _110
REMARK   51  A    between atoms: _110  and  _111
REMARK   52  A    between atoms: _116  and  _118
REMARK   53  A    between atoms: _118  and  _119
REMARK   54  A    between atoms: _118  and  _121
REMARK   55  A    between atoms: _121  and  _122
REMARK   56  A    between atoms: _125  and  _127
REMARK   57  A    between atoms: _127  and  _128
REMARK   58  A    between atoms: _127  and  _130
REMARK   59  A    between atoms: _130  and  _131
REMARK   60  A    between atoms: _134  and  _136
REMARK   61  A    between atoms: _136  and  _137
REMARK   62  A    between atoms: _136  and  _139
REMARK   63  A    between atoms: _139  and  _140
REMARK   64  A    between atoms: _143  and  _145
REMARK   65  A    between atoms: _145  and  _146
REMARK   66  A    between atoms: _145  and  _148
REMARK   67  A    between atoms: _150  and  _152
REMARK   68  A    between atoms: _152  and  _153
REMARK   69  A    between atoms: _152  and  _155
REMARK   70  A    between atoms: _155  and  _156
REMARK   71  A    between atoms: _156  and  _157
REMARK   72  A    between atoms: _157  and  _158
REMARK   73  A    between atoms: _167  and  _169
REMARK   74  A    between atoms: _169  and  _170
REMARK   75  A    between atoms: _169  and  _172
REMARK   76  A    between atoms: _172  and  _173
REMARK   77  A    between atoms: _173  and  _174
REMARK   78  A    between atoms: _174  and  _175
REMARK   79  A    between atoms: _175  and  _176
REMARK   80  A    between atoms: _180  and  _182
REMARK   81  A    between atoms: _182  and  _183
REMARK   82  A    between atoms: _182  and  _185
REMARK   83  A    between atoms: _185  and  _186
REMARK   84  A    between atoms: _189  and  _191
REMARK   85  A    between atoms: _191  and  _192
REMARK   86  A    between atoms: _191  and  _194
REMARK   87  A    between atoms: _197  and  _199
REMARK   88  A    between atoms: _199  and  _200
REMARK   89  A    between atoms: _199  and  _202
REMARK   90  A    between atoms: _202  and  _203
REMARK   91  A    between atoms: _208  and  _210
REMARK   92  A    between atoms: _210  and  _211
REMARK   93  A    between atoms: _210  and  _213
REMARK   94  A    between atoms: _213  and  _214
REMARK   95  A    between atoms: _220  and  _222
REMARK   96  A    between atoms: _222  and  _223
REMARK   97  A    between atoms: _222  and  _225
REMARK   98  A    between atoms: _225  and  _226
REMARK   99  A    between atoms: _229  and  _231
REMARK  100  A    between atoms: _231  and  _232
REMARK  101  A    between atoms: _235  and  _237
REMARK  102  A    between atoms: _237  and  _238
REMARK  103  A    between atoms: _237  and  _240
REMARK  104  A    between atoms: _240  and  _241
REMARK  105  A    between atoms: _243  and  _245
REMARK  106  A    between atoms: _245  and  _246
REMARK  107  A    between atoms: _245  and  _248
REMARK  108  A    between atoms: _252  and  _254
REMARK  109  A    between atoms: _254  and  _255
REMARK  110  A    between atoms: _254  and  _257
REMARK  111  A    between atoms: _257  and  _258
REMARK  112  A    between atoms: _258  and  _259
REMARK  113  A    between atoms: _259  and  _260
REMARK  114  A    between atoms: _260  and  _261
REMARK  115  A    between atoms: _265  and  _267
REMARK  116  A    between atoms: _267  and  _268
REMARK  117  A    between atoms: _267  and  _270
REMARK  118  A    between atoms: _270  and  _271
REMARK  119  A    between atoms: _277  and  _279
REMARK  120  A    between atoms: _279  and  _280
REMARK  121  A    between atoms: _279  and  _282
REMARK  122  A    between atoms: _282  and  _283
REMARK  123  A    between atoms: _283  and  _284
REMARK  124  A    between atoms: _289  and  _291
REMARK  125  A    between atoms: _291  and  _292
REMARK  126  A    between atoms: _291  and  _294
REMARK  127  A    between atoms: _294  and  _295
REMARK                            x       y       z     vdW  Elec       q    Type
REMARK                         _______ _______ _______ _____ _____    ______ ____
ROOT
ATOM      1  O   HOH     1      26.694  40.571  -2.214  0.00  0.00    +0.000 OA
ENDROOT
TORSDOF 0
REMARK  Name = ../refined-set-2016/3djq/3djq_pocket.pdb
REMARK  127 active torsions:
REMARK  status: ('A' for Active; 'I' for Inactive)
REMARK    1  A    between atoms: _1  and  _3
REMARK    2  A    between atoms: _3  and  _4
REMARK    3  A    between atoms: _3  and  _6
REMARK    4  A    between atoms: _6  and  _7
REMARK    5  A    between atoms: _7  and  _8
REMARK    6  A    between atoms: _10  and  _12
REMARK    7  A    between atoms: _12  and  _13
REMARK    8  A    between atoms: _12  and  _15
REMARK    9  A    between atoms: _15  and  _16
REMARK   10  A    between atoms: _16  and  _17
REMARK   11  A    between atoms: _19  and  _21
REMARK   12  A    between atoms: _21  and  _22
REMARK   13  A    between atoms: _21  and  _24
REMARK   14  A    between atoms: _24  and  _25
REMARK   15  A    between atoms: _25  and  _26
REMARK   16  A    between atoms: _26  and  _27
REMARK   17  A    between atoms: _27  and  _28
REMARK   18  A    between atoms: _32  and  _34
REMARK   19  A    between atoms: _34  and  _35
REMARK   20  A    between atoms: _34  and  _37
REMARK   21  A    between atoms: _37  and  _38
REMARK   22  A    between atoms: _38  and  _39
REMARK   23  A    between atoms: _39  and  _40
REMARK   24  A    between atoms: _40  and  _41
REMARK   25  A    between atoms: _46  and  _47
REMARK   26  A    between atoms: _52  and  _54
REMARK   27  A    between atoms: _54  and  _55
REMARK   28  A    between atoms: _54  and  _57
REMARK   29  A    between atoms: _60  and  _62
REMARK   30  A    between atoms: _62  and  _63
REMARK   31  A    between atoms: _62  and  _65
REMARK   32  A    between atoms: _65  and  _66
REMARK   33  A    between atoms: _71  and  _73
REMARK   34  A    between atoms: _73  and  _74
REMARK   35  A    between atoms: _73  and  _76
REMARK   36  A    between atoms: _76  and  _77
REMARK   37  A    between atoms: _80  and  _82
REMARK   38  A    between atoms: _82  and  _83
REMARK   39  A    between atoms: _82  and  _85
REMARK   40  A    between atoms: _85  and  _86
REMARK   41  A    between atoms: _92  and  _94
REMARK   42  A    between atoms: _94  and  _95
REMARK   43  A    between atoms: _94  and  _97
REMARK   44  A    between atoms: _97  and  _98
REMARK   45  A    between atoms: _98  and  _99
REMARK   46  A    between atoms: _99  and  _100
REMARK   47  A    between atoms: _100  and  _101
REMARK   48  A    between atoms: _105  and  _107
REMARK   49  A    between atoms: _107  and  _108
REMARK   50  A    between atoms: _107  and  _110
REMARK   51  A    between atoms: _110  and  _111
REMARK   52  A    between atoms: _116  and  _118
REMARK   53  A    between atoms: _118  and  _119
REMARK   54  A    between atoms: _118  and  _121
REMARK   55  A    between atoms: _121  and  _122
REMARK   56  A    between atoms: _125  and  _127
REMARK   57  A    between atoms: _127  and  _128
REMARK   58  A    between atoms: _127  and  _130
REMARK   59  A    between atoms: _130  and  _131
REMARK   60  A    between atoms: _134  and  _136
REMARK   61  A    between atoms: _136  and  _137
REMARK   62  A    between atoms: _136  and  _139
REMARK   63  A    between atoms: _139  and  _140
REMARK   64  A    between atoms: _143  and  _145
REMARK   65  A    between atoms: _145  and  _146
REMARK   66  A    between atoms: _145  and  _148
REMARK   67  A    between atoms: _150  and  _152
REMARK   68  A    between atoms: _152  and  _153
REMARK   69  A    between atoms: _152  and  _155
REMARK   70  A    between atoms: _155  and  _156
REMARK   71  A    between atoms: _156  and  _157
REMARK   72  A    between atoms: _157  and  _158
REMARK   73  A    between atoms: _167  and  _169
REMARK   74  A    between atoms: _169  and  _170
REMARK   75  A    between atoms: _169  and  _172
REMARK   76  A    between atoms: _172  and  _173
REMARK   77  A    between atoms: _173  and  _174
REMARK   78  A    between atoms: _174  and  _175
REMARK   79  A    between atoms: _175  and  _176
REMARK   80  A    between atoms: _180  and  _182
REMARK   81  A    between atoms: _182  and  _183
REMARK   82  A    between atoms: _182  and  _185
REMARK   83  A    between atoms: _185  and  _186
REMARK   84  A    between atoms: _189  and  _191
REMARK   85  A    between atoms: _191  and  _192
REMARK   86  A    between atoms: _191  and  _194
REMARK   87  A    between atoms: _197  and  _199
REMARK   88  A    between atoms: _199  and  _200
REMARK   89  A    between atoms: _199  and  _202
REMARK   90  A    between atoms: _202  and  _203
REMARK   91  A    between atoms: _208  and  _210
REMARK   92  A    between atoms: _210  and  _211
REMARK   93  A    between atoms: _210  and  _213
REMARK   94  A    between atoms: _213  and  _214
REMARK   95  A    between atoms: _220  and  _222
REMARK   96  A    between atoms: _222  and  _223
REMARK   97  A    between atoms: _222  and  _225
REMARK   98  A    between atoms: _225  and  _226
REMARK   99  A    between atoms: _229  and  _231
REMARK  100  A    between atoms: _231  and  _232
REMARK  101  A    between atoms: _235  and  _237
REMARK  102  A    between atoms: _237  and  _238
REMARK  103  A    between atoms: _237  and  _240
REMARK  104  A    between atoms: _240  and  _241
REMARK  105  A    between atoms: _243  and  _245
REMARK  106  A    between atoms: _245  and  _246
REMARK  107  A    between atoms: _245  and  _248
REMARK  108  A    between atoms: _252  and  _254
REMARK  109  A    between atoms: _254  and  _255
REMARK  110  A    between atoms: _254  and  _257
REMARK  111  A    between atoms: _257  and  _258
REMARK  112  A    between atoms: _258  and  _259
REMARK  113  A    between atoms: _259  and  _260
REMARK  114  A    between atoms: _260  and  _261
REMARK  115  A    between atoms: _265  and  _267
REMARK  116  A    between atoms: _267  and  _268
REMARK  117  A    between atoms: _267  and  _270
REMARK  118  A    between atoms: _270  and  _271
REMARK  119  A    between atoms: _277  and  _279
REMARK  120  A    between atoms: _279  and  _280
REMARK  121  A    between atoms: _279  and  _282
REMARK  122  A    between atoms: _282  and  _283
REMARK  123  A    between atoms: _283  and  _284
REMARK  124  A    between atoms: _289  and  _291
REMARK  125  A    between atoms: _291  and  _292
REMARK  126  A    between atoms: _291  and  _294
REMARK  127  A    between atoms: _294  and  _295
REMARK                            x       y       z     vdW  Elec       q    Type
REMARK                         _______ _______ _______ _____ _____    ______ ____
ROOT
ATOM      1  O   HOH     1      32.572  45.429  -1.499  0.00  0.00    +0.000 OA
ENDROOT
TORSDOF 0
REMARK  Name = ../refined-set-2016/3djq/3djq_pocket.pdb
REMARK  127 active torsions:
REMARK  status: ('A' for Active; 'I' for Inactive)
REMARK    1  A    between atoms: _1  and  _3
REMARK    2  A    between atoms: _3  and  _4
REMARK    3  A    between atoms: _3  and  _6
REMARK    4  A    between atoms: _6  and  _7
REMARK    5  A    between atoms: _7  and  _8
REMARK    6  A    between atoms: _10  and  _12
REMARK    7  A    between atoms: _12  and  _13
REMARK    8  A    between atoms: _12  and  _15
REMARK    9  A    between atoms: _15  and  _16
REMARK   10  A    between atoms: _16  and  _17
REMARK   11  A    between atoms: _19  and  _21
REMARK   12  A    between atoms: _21  and  _22
REMARK   13  A    between atoms: _21  and  _24
REMARK   14  A    between atoms: _24  and  _25
REMARK   15  A    between atoms: _25  and  _26
REMARK   16  A    between atoms: _26  and  _27
REMARK   17  A    between atoms: _27  and  _28
REMARK   18  A    between atoms: _32  and  _34
REMARK   19  A    between atoms: _34  and  _35
REMARK   20  A    between atoms: _34  and  _37
REMARK   21  A    between atoms: _37  and  _38
REMARK   22  A    between atoms: _38  and  _39
REMARK   23  A    between atoms: _39  and  _40
REMARK   24  A    between atoms: _40  and  _41
REMARK   25  A    between atoms: _46  and  _47
REMARK   26  A    between atoms: _52  and  _54
REMARK   27  A    between atoms: _54  and  _55
REMARK   28  A    between atoms: _54  and  _57
REMARK   29  A    between atoms: _60  and  _62
REMARK   30  A    between atoms: _62  and  _63
REMARK   31  A    between atoms: _62  and  _65
REMARK   32  A    between atoms: _65  and  _66
REMARK   33  A    between atoms: _71  and  _73
REMARK   34  A    between atoms: _73  and  _74
REMARK   35  A    between atoms: _73  and  _76
REMARK   36  A    between atoms: _76  and  _77
REMARK   37  A    between atoms: _80  and  _82
REMARK   38  A    between atoms: _82  and  _83
REMARK   39  A    between atoms: _82  and  _85
REMARK   40  A    between atoms: _85  and  _86
REMARK   41  A    between atoms: _92  and  _94
REMARK   42  A    between atoms: _94  and  _95
REMARK   43  A    between atoms: _94  and  _97
REMARK   44  A    between atoms: _97  and  _98
REMARK   45  A    between atoms: _98  and  _99
REMARK   46  A    between atoms: _99  and  _100
REMARK   47  A    between atoms: _100  and  _101
REMARK   48  A    between atoms: _105  and  _107
REMARK   49  A    between atoms: _107  and  _108
REMARK   50  A    between atoms: _107  and  _110
REMARK   51  A    between atoms: _110  and  _111
REMARK   52  A    between atoms: _116  and  _118
REMARK   53  A    between atoms: _118  and  _119
REMARK   54  A    between atoms: _118  and  _121
REMARK   55  A    between atoms: _121  and  _122
REMARK   56  A    between atoms: _125  and  _127
REMARK   57  A    between atoms: _127  and  _128
REMARK   58  A    between atoms: _127  and  _130
REMARK   59  A    between atoms: _130  and  _131
REMARK   60  A    between atoms: _134  and  _136
REMARK   61  A    between atoms: _136  and  _137
REMARK   62  A    between atoms: _136  and  _139
REMARK   63  A    between atoms: _139  and  _140
REMARK   64  A    between atoms: _143  and  _145
REMARK   65  A    between atoms: _145  and  _146
REMARK   66  A    between atoms: _145  and  _148
REMARK   67  A    between atoms: _150  and  _152
REMARK   68  A    between atoms: _152  and  _153
REMARK   69  A    between atoms: _152  and  _155
REMARK   70  A    between atoms: _155  and  _156
REMARK   71  A    between atoms: _156  and  _157
REMARK   72  A    between atoms: _157  and  _158
REMARK   73  A    between atoms: _167  and  _169
REMARK   74  A    between atoms: _169  and  _170
REMARK   75  A    between atoms: _169  and  _172
REMARK   76  A    between atoms: _172  and  _173
REMARK   77  A    between atoms: _173  and  _174
REMARK   78  A    between atoms: _174  and  _175
REMARK   79  A    between atoms: _175  and  _176
REMARK   80  A    between atoms: _180  and  _182
REMARK   81  A    between atoms: _182  and  _183
REMARK   82  A    between atoms: _182  and  _185
REMARK   83  A    between atoms: _185  and  _186
REMARK   84  A    between atoms: _189  and  _191
REMARK   85  A    between atoms: _191  and  _192
REMARK   86  A    between atoms: _191  and  _194
REMARK   87  A    between atoms: _197  and  _199
REMARK   88  A    between atoms: _199  and  _200
REMARK   89  A    between atoms: _199  and  _202
REMARK   90  A    between atoms: _202  and  _203
REMARK   91  A    between atoms: _208  and  _210
REMARK   92  A    between atoms: _210  and  _211
REMARK   93  A    between atoms: _210  and  _213
REMARK   94  A    between atoms: _213  and  _214
REMARK   95  A    between atoms: _220  and  _222
REMARK   96  A    between atoms: _222  and  _223
REMARK   97  A    between atoms: _222  and  _225
REMARK   98  A    between atoms: _225  and  _226
REMARK   99  A    between atoms: _229  and  _231
REMARK  100  A    between atoms: _231  and  _232
REMARK  101  A    between atoms: _235  and  _237
REMARK  102  A    between atoms: _237  and  _238
REMARK  103  A    between atoms: _237  and  _240
REMARK  104  A    between atoms: _240  and  _241
REMARK  105  A    between atoms: _243  and  _245
REMARK  106  A    between atoms: _245  and  _246
REMARK  107  A    between atoms: _245  and  _248
REMARK  108  A    between atoms: _252  and  _254
REMARK  109  A    between atoms: _254  and  _255
REMARK  110  A    between atoms: _254  and  _257
REMARK  111  A    between atoms: _257  and  _258
REMARK  112  A    between atoms: _258  and  _259
REMARK  113  A    between atoms: _259  and  _260
REMARK  114  A    between atoms: _260  and  _261
REMARK  115  A    between atoms: _265  and  _267
REMARK  116  A    between atoms: _267  and  _268
REMARK  117  A    between atoms: _267  and  _270
REMARK  118  A    between atoms: _270  and  _271
REMARK  119  A    between atoms: _277  and  _279
REMARK  120  A    between atoms: _279  and  _280
REMARK  121  A    between atoms: _279  and  _282
REMARK  122  A    between atoms: _282  and  _283
REMARK  123  A    between atoms: _283  and  _284
REMARK  124  A    between atoms: _289  and  _291
REMARK  125  A    between atoms: _291  and  _292
REMARK  126  A    between atoms: _291  and  _294
REMARK  127  A    between atoms: _294  and  _295
REMARK                            x       y       z     vdW  Elec       q    Type
REMARK                         _______ _______ _______ _____ _____    ______ ____
ROOT
ATOM      1  O   HOH     1      28.686  39.247   0.331  0.00  0.00    +0.000 OA
ENDROOT
TORSDOF 0
REMARK  Name = ../refined-set-2016/3djq/3djq_pocket.pdb
REMARK  127 active torsions:
REMARK  status: ('A' for Active; 'I' for Inactive)
REMARK    1  A    between atoms: _1  and  _3
REMARK    2  A    between atoms: _3  and  _4
REMARK    3  A    between atoms: _3  and  _6
REMARK    4  A    between atoms: _6  and  _7
REMARK    5  A    between atoms: _7  and  _8
REMARK    6  A    between atoms: _10  and  _12
REMARK    7  A    between atoms: _12  and  _13
REMARK    8  A    between atoms: _12  and  _15
REMARK    9  A    between atoms: _15  and  _16
REMARK   10  A    between atoms: _16  and  _17
REMARK   11  A    between atoms: _19  and  _21
REMARK   12  A    between atoms: _21  and  _22
REMARK   13  A    between atoms: _21  and  _24
REMARK   14  A    between atoms: _24  and  _25
REMARK   15  A    between atoms: _25  and  _26
REMARK   16  A    between atoms: _26  and  _27
REMARK   17  A    between atoms: _27  and  _28
REMARK   18  A    between atoms: _32  and  _34
REMARK   19  A    between atoms: _34  and  _35
REMARK   20  A    between atoms: _34  and  _37
REMARK   21  A    between atoms: _37  and  _38
REMARK   22  A    between atoms: _38  and  _39
REMARK   23  A    between atoms: _39  and  _40
REMARK   24  A    between atoms: _40  and  _41
REMARK   25  A    between atoms: _46  and  _47
REMARK   26  A    between atoms: _52  and  _54
REMARK   27  A    between atoms: _54  and  _55
REMARK   28  A    between atoms: _54  and  _57
REMARK   29  A    between atoms: _60  and  _62
REMARK   30  A    between atoms: _62  and  _63
REMARK   31  A    between atoms: _62  and  _65
REMARK   32  A    between atoms: _65  and  _66
REMARK   33  A    between atoms: _71  and  _73
REMARK   34  A    between atoms: _73  and  _74
REMARK   35  A    between atoms: _73  and  _76
REMARK   36  A    between atoms: _76  and  _77
REMARK   37  A    between atoms: _80  and  _82
REMARK   38  A    between atoms: _82  and  _83
REMARK   39  A    between atoms: _82  and  _85
REMARK   40  A    between atoms: _85  and  _86
REMARK   41  A    between atoms: _92  and  _94
REMARK   42  A    between atoms: _94  and  _95
REMARK   43  A    between atoms: _94  and  _97
REMARK   44  A    between atoms: _97  and  _98
REMARK   45  A    between atoms: _98  and  _99
REMARK   46  A    between atoms: _99  and  _100
REMARK   47  A    between atoms: _100  and  _101
REMARK   48  A    between atoms: _105  and  _107
REMARK   49  A    between atoms: _107  and  _108
REMARK   50  A    between atoms: _107  and  _110
REMARK   51  A    between atoms: _110  and  _111
REMARK   52  A    between atoms: _116  and  _118
REMARK   53  A    between atoms: _118  and  _119
REMARK   54  A    between atoms: _118  and  _121
REMARK   55  A    between atoms: _121  and  _122
REMARK   56  A    between atoms: _125  and  _127
REMARK   57  A    between atoms: _127  and  _128
REMARK   58  A    between atoms: _127  and  _130
REMARK   59  A    between atoms: _130  and  _131
REMARK   60  A    between atoms: _134  and  _136
REMARK   61  A    between atoms: _136  and  _137
REMARK   62  A    between atoms: _136  and  _139
REMARK   63  A    between atoms: _139  and  _140
REMARK   64  A    between atoms: _143  and  _145
REMARK   65  A    between atoms: _145  and  _146
REMARK   66  A    between atoms: _145  and  _148
REMARK   67  A    between atoms: _150  and  _152
REMARK   68  A    between atoms: _152  and  _153
REMARK   69  A    between atoms: _152  and  _155
REMARK   70  A    between atoms: _155  and  _156
REMARK   71  A    between atoms: _156  and  _157
REMARK   72  A    between atoms: _157  and  _158
REMARK   73  A    between atoms: _167  and  _169
REMARK   74  A    between atoms: _169  and  _170
REMARK   75  A    between atoms: _169  and  _172
REMARK   76  A    between atoms: _172  and  _173
REMARK   77  A    between atoms: _173  and  _174
REMARK   78  A    between atoms: _174  and  _175
REMARK   79  A    between atoms: _175  and  _176
REMARK   80  A    between atoms: _180  and  _182
REMARK   81  A    between atoms: _182  and  _183
REMARK   82  A    between atoms: _182  and  _185
REMARK   83  A    between atoms: _185  and  _186
REMARK   84  A    between atoms: _189  and  _191
REMARK   85  A    between atoms: _191  and  _192
REMARK   86  A    between atoms: _191  and  _194
REMARK   87  A    between atoms: _197  and  _199
REMARK   88  A    between atoms: _199  and  _200
REMARK   89  A    between atoms: _199  and  _202
REMARK   90  A    between atoms: _202  and  _203
REMARK   91  A    between atoms: _208  and  _210
REMARK   92  A    between atoms: _210  and  _211
REMARK   93  A    between atoms: _210  and  _213
REMARK   94  A    between atoms: _213  and  _214
REMARK   95  A    between atoms: _220  and  _222
REMARK   96  A    between atoms: _222  and  _223
REMARK   97  A    between atoms: _222  and  _225
REMARK   98  A    between atoms: _225  and  _226
REMARK   99  A    between atoms: _229  and  _231
REMARK  100  A    between atoms: _231  and  _232
REMARK  101  A    between atoms: _235  and  _237
REMARK  102  A    between atoms: _237  and  _238
REMARK  103  A    between atoms: _237  and  _240
REMARK  104  A    between atoms: _240  and  _241
REMARK  105  A    between atoms: _243  and  _245
REMARK  106  A    between atoms: _245  and  _246
REMARK  107  A    between atoms: _245  and  _248
REMARK  108  A    between atoms: _252  and  _254
REMARK  109  A    between atoms: _254  and  _255
REMARK  110  A    between atoms: _254  and  _257
REMARK  111  A    between atoms: _257  and  _258
REMARK  112  A    between atoms: _258  and  _259
REMARK  113  A    between atoms: _259  and  _260
REMARK  114  A    between atoms: _260  and  _261
REMARK  115  A    between atoms: _265  and  _267
REMARK  116  A    between atoms: _267  and  _268
REMARK  117  A    between atoms: _267  and  _270
REMARK  118  A    between atoms: _270  and  _271
REMARK  119  A    between atoms: _277  and  _279
REMARK  120  A    between atoms: _279  and  _280
REMARK  121  A    between atoms: _279  and  _282
REMARK  122  A    between atoms: _282  and  _283
REMARK  123  A    between atoms: _283  and  _284
REMARK  124  A    between atoms: _289  and  _291
REMARK  125  A    between atoms: _291  and  _292
REMARK  126  A    between atoms: _291  and  _294
REMARK  127  A    between atoms: _294  and  _295
REMARK                            x       y       z     vdW  Elec       q    Type
REMARK                         _______ _______ _______ _____ _____    ______ ____
ROOT
ATOM      1  O   HOH     1      38.676  37.133  12.350  0.00  0.00    +0.000 OA
ENDROOT
TORSDOF 0
REMARK  Name = ../refined-set-2016/3djq/3djq_pocket.pdb
REMARK  127 active torsions:
REMARK  status: ('A' for Active; 'I' for Inactive)
REMARK    1  A    between atoms: _1  and  _3
REMARK    2  A    between atoms: _3  and  _4
REMARK    3  A    between atoms: _3  and  _6
REMARK    4  A    between atoms: _6  and  _7
REMARK    5  A    between atoms: _7  and  _8
REMARK    6  A    between atoms: _10  and  _12
REMARK    7  A    between atoms: _12  and  _13
REMARK    8  A    between atoms: _12  and  _15
REMARK    9  A    between atoms: _15  and  _16
REMARK   10  A    between atoms: _16  and  _17
REMARK   11  A    between atoms: _19  and  _21
REMARK   12  A    between atoms: _21  and  _22
REMARK   13  A    between atoms: _21  and  _24
REMARK   14  A    between atoms: _24  and  _25
REMARK   15  A    between atoms: _25  and  _26
REMARK   16  A    between atoms: _26  and  _27
REMARK   17  A    between atoms: _27  and  _28
REMARK   18  A    between atoms: _32  and  _34
REMARK   19  A    between atoms: _34  and  _35
REMARK   20  A    between atoms: _34  and  _37
REMARK   21  A    between atoms: _37  and  _38
REMARK   22  A    between atoms: _38  and  _39
REMARK   23  A    between atoms: _39  and  _40
REMARK   24  A    between atoms: _40  and  _41
REMARK   25  A    between atoms: _46  and  _47
REMARK   26  A    between atoms: _52  and  _54
REMARK   27  A    between atoms: _54  and  _55
REMARK   28  A    between atoms: _54  and  _57
REMARK   29  A    between atoms: _60  and  _62
REMARK   30  A    between atoms: _62  and  _63
REMARK   31  A    between atoms: _62  and  _65
REMARK   32  A    between atoms: _65  and  _66
REMARK   33  A    between atoms: _71  and  _73
REMARK   34  A    between atoms: _73  and  _74
REMARK   35  A    between atoms: _73  and  _76
REMARK   36  A    between atoms: _76  and  _77
REMARK   37  A    between atoms: _80  and  _82
REMARK   38  A    between atoms: _82  and  _83
REMARK   39  A    between atoms: _82  and  _85
REMARK   40  A    between atoms: _85  and  _86
REMARK   41  A    between atoms: _92  and  _94
REMARK   42  A    between atoms: _94  and  _95
REMARK   43  A    between atoms: _94  and  _97
REMARK   44  A    between atoms: _97  and  _98
REMARK   45  A    between atoms: _98  and  _99
REMARK   46  A    between atoms: _99  and  _100
REMARK   47  A    between atoms: _100  and  _101
REMARK   48  A    between atoms: _105  and  _107
REMARK   49  A    between atoms: _107  and  _108
REMARK   50  A    between atoms: _107  and  _110
REMARK   51  A    between atoms: _110  and  _111
REMARK   52  A    between atoms: _116  and  _118
REMARK   53  A    between atoms: _118  and  _119
REMARK   54  A    between atoms: _118  and  _121
REMARK   55  A    between atoms: _121  and  _122
REMARK   56  A    between atoms: _125  and  _127
REMARK   57  A    between atoms: _127  and  _128
REMARK   58  A    between atoms: _127  and  _130
REMARK   59  A    between atoms: _130  and  _131
REMARK   60  A    between atoms: _134  and  _136
REMARK   61  A    between atoms: _136  and  _137
REMARK   62  A    between atoms: _136  and  _139
REMARK   63  A    between atoms: _139  and  _140
REMARK   64  A    between atoms: _143  and  _145
REMARK   65  A    between atoms: _145  and  _146
REMARK   66  A    between atoms: _145  and  _148
REMARK   67  A    between atoms: _150  and  _152
REMARK   68  A    between atoms: _152  and  _153
REMARK   69  A    between atoms: _152  and  _155
REMARK   70  A    between atoms: _155  and  _156
REMARK   71  A    between atoms: _156  and  _157
REMARK   72  A    between atoms: _157  and  _158
REMARK   73  A    between atoms: _167  and  _169
REMARK   74  A    between atoms: _169  and  _170
REMARK   75  A    between atoms: _169  and  _172
REMARK   76  A    between atoms: _172  and  _173
REMARK   77  A    between atoms: _173  and  _174
REMARK   78  A    between atoms: _174  and  _175
REMARK   79  A    between atoms: _175  and  _176
REMARK   80  A    between atoms: _180  and  _182
REMARK   81  A    between atoms: _182  and  _183
REMARK   82  A    between atoms: _182  and  _185
REMARK   83  A    between atoms: _185  and  _186
REMARK   84  A    between atoms: _189  and  _191
REMARK   85  A    between atoms: _191  and  _192
REMARK   86  A    between atoms: _191  and  _194
REMARK   87  A    between atoms: _197  and  _199
REMARK   88  A    between atoms: _199  and  _200
REMARK   89  A    between atoms: _199  and  _202
REMARK   90  A    between atoms: _202  and  _203
REMARK   91  A    between atoms: _208  and  _210
REMARK   92  A    between atoms: _210  and  _211
REMARK   93  A    between atoms: _210  and  _213
REMARK   94  A    between atoms: _213  and  _214
REMARK   95  A    between atoms: _220  and  _222
REMARK   96  A    between atoms: _222  and  _223
REMARK   97  A    between atoms: _222  and  _225
REMARK   98  A    between atoms: _225  and  _226
REMARK   99  A    between atoms: _229  and  _231
REMARK  100  A    between atoms: _231  and  _232
REMARK  101  A    between atoms: _235  and  _237
REMARK  102  A    between atoms: _237  and  _238
REMARK  103  A    between atoms: _237  and  _240
REMARK  104  A    between atoms: _240  and  _241
REMARK  105  A    between atoms: _243  and  _245
REMARK  106  A    between atoms: _245  and  _246
REMARK  107  A    between atoms: _245  and  _248
REMARK  108  A    between atoms: _252  and  _254
REMARK  109  A    between atoms: _254  and  _255
REMARK  110  A    between atoms: _254  and  _257
REMARK  111  A    between atoms: _257  and  _258
REMARK  112  A    between atoms: _258  and  _259
REMARK  113  A    between atoms: _259  and  _260
REMARK  114  A    between atoms: _260  and  _261
REMARK  115  A    between atoms: _265  and  _267
REMARK  116  A    between atoms: _267  and  _268
REMARK  117  A    between atoms: _267  and  _270
REMARK  118  A    between atoms: _270  and  _271
REMARK  119  A    between atoms: _277  and  _279
REMARK  120  A    between atoms: _279  and  _280
REMARK  121  A    between atoms: _279  and  _282
REMARK  122  A    between atoms: _282  and  _283
REMARK  123  A    between atoms: _283  and  _284
REMARK  124  A    between atoms: _289  and  _291
REMARK  125  A    between atoms: _291  and  _292
REMARK  126  A    between atoms: _291  and  _294
REMARK  127  A    between atoms: _294  and  _295
REMARK                            x       y       z     vdW  Elec       q    Type
REMARK                         _______ _______ _______ _____ _____    ______ ____
ROOT
ATOM      1  O   HOH     1      34.872  33.569  10.578  0.00  0.00    +0.000 OA
ENDROOT
TORSDOF 0
REMARK  Name = ../refined-set-2016/3djq/3djq_pocket.pdb
REMARK  127 active torsions:
REMARK  status: ('A' for Active; 'I' for Inactive)
REMARK    1  A    between atoms: _1  and  _3
REMARK    2  A    between atoms: _3  and  _4
REMARK    3  A    between atoms: _3  and  _6
REMARK    4  A    between atoms: _6  and  _7
REMARK    5  A    between atoms: _7  and  _8
REMARK    6  A    between atoms: _10  and  _12
REMARK    7  A    between atoms: _12  and  _13
REMARK    8  A    between atoms: _12  and  _15
REMARK    9  A    between atoms: _15  and  _16
REMARK   10  A    between atoms: _16  and  _17
REMARK   11  A    between atoms: _19  and  _21
REMARK   12  A    between atoms: _21  and  _22
REMARK   13  A    between atoms: _21  and  _24
REMARK   14  A    between atoms: _24  and  _25
REMARK   15  A    between atoms: _25  and  _26
REMARK   16  A    between atoms: _26  and  _27
REMARK   17  A    between atoms: _27  and  _28
REMARK   18  A    between atoms: _32  and  _34
REMARK   19  A    between atoms: _34  and  _35
REMARK   20  A    between atoms: _34  and  _37
REMARK   21  A    between atoms: _37  and  _38
REMARK   22  A    between atoms: _38  and  _39
REMARK   23  A    between atoms: _39  and  _40
REMARK   24  A    between atoms: _40  and  _41
REMARK   25  A    between atoms: _46  and  _47
REMARK   26  A    between atoms: _52  and  _54
REMARK   27  A    between atoms: _54  and  _55
REMARK   28  A    between atoms: _54  and  _57
REMARK   29  A    between atoms: _60  and  _62
REMARK   30  A    between atoms: _62  and  _63
REMARK   31  A    between atoms: _62  and  _65
REMARK   32  A    between atoms: _65  and  _66
REMARK   33  A    between atoms: _71  and  _73
REMARK   34  A    between atoms: _73  and  _74
REMARK   35  A    between atoms: _73  and  _76
REMARK   36  A    between atoms: _76  and  _77
REMARK   37  A    between atoms: _80  and  _82
REMARK   38  A    between atoms: _82  and  _83
REMARK   39  A    between atoms: _82  and  _85
REMARK   40  A    between atoms: _85  and  _86
REMARK   41  A    between atoms: _92  and  _94
REMARK   42  A    between atoms: _94  and  _95
REMARK   43  A    between atoms: _94  and  _97
REMARK   44  A    between atoms: _97  and  _98
REMARK   45  A    between atoms: _98  and  _99
REMARK   46  A    between atoms: _99  and  _100
REMARK   47  A    between atoms: _100  and  _101
REMARK   48  A    between atoms: _105  and  _107
REMARK   49  A    between atoms: _107  and  _108
REMARK   50  A    between atoms: _107  and  _110
REMARK   51  A    between atoms: _110  and  _111
REMARK   52  A    between atoms: _116  and  _118
REMARK   53  A    between atoms: _118  and  _119
REMARK   54  A    between atoms: _118  and  _121
REMARK   55  A    between atoms: _121  and  _122
REMARK   56  A    between atoms: _125  and  _127
REMARK   57  A    between atoms: _127  and  _128
REMARK   58  A    between atoms: _127  and  _130
REMARK   59  A    between atoms: _130  and  _131
REMARK   60  A    between atoms: _134  and  _136
REMARK   61  A    between atoms: _136  and  _137
REMARK   62  A    between atoms: _136  and  _139
REMARK   63  A    between atoms: _139  and  _140
REMARK   64  A    between atoms: _143  and  _145
REMARK   65  A    between atoms: _145  and  _146
REMARK   66  A    between atoms: _145  and  _148
REMARK   67  A    between atoms: _150  and  _152
REMARK   68  A    between atoms: _152  and  _153
REMARK   69  A    between atoms: _152  and  _155
REMARK   70  A    between atoms: _155  and  _156
REMARK   71  A    between atoms: _156  and  _157
REMARK   72  A    between atoms: _157  and  _158
REMARK   73  A    between atoms: _167  and  _169
REMARK   74  A    between atoms: _169  and  _170
REMARK   75  A    between atoms: _169  and  _172
REMARK   76  A    between atoms: _172  and  _173
REMARK   77  A    between atoms: _173  and  _174
REMARK   78  A    between atoms: _174  and  _175
REMARK   79  A    between atoms: _175  and  _176
REMARK   80  A    between atoms: _180  and  _182
REMARK   81  A    between atoms: _182  and  _183
REMARK   82  A    between atoms: _182  and  _185
REMARK   83  A    between atoms: _185  and  _186
REMARK   84  A    between atoms: _189  and  _191
REMARK   85  A    between atoms: _191  and  _192
REMARK   86  A    between atoms: _191  and  _194
REMARK   87  A    between atoms: _197  and  _199
REMARK   88  A    between atoms: _199  and  _200
REMARK   89  A    between atoms: _199  and  _202
REMARK   90  A    between atoms: _202  and  _203
REMARK   91  A    between atoms: _208  and  _210
REMARK   92  A    between atoms: _210  and  _211
REMARK   93  A    between atoms: _210  and  _213
REMARK   94  A    between atoms: _213  and  _214
REMARK   95  A    between atoms: _220  and  _222
REMARK   96  A    between atoms: _222  and  _223
REMARK   97  A    between atoms: _222  and  _225
REMARK   98  A    between atoms: _225  and  _226
REMARK   99  A    between atoms: _229  and  _231
REMARK  100  A    between atoms: _231  and  _232
REMARK  101  A    between atoms: _235  and  _237
REMARK  102  A    between atoms: _237  and  _238
REMARK  103  A    between atoms: _237  and  _240
REMARK  104  A    between atoms: _240  and  _241
REMARK  105  A    between atoms: _243  and  _245
REMARK  106  A    between atoms: _245  and  _246
REMARK  107  A    between atoms: _245  and  _248
REMARK  108  A    between atoms: _252  and  _254
REMARK  109  A    between atoms: _254  and  _255
REMARK  110  A    between atoms: _254  and  _257
REMARK  111  A    between atoms: _257  and  _258
REMARK  112  A    between atoms: _258  and  _259
REMARK  113  A    between atoms: _259  and  _260
REMARK  114  A    between atoms: _260  and  _261
REMARK  115  A    between atoms: _265  and  _267
REMARK  116  A    between atoms: _267  and  _268
REMARK  117  A    between atoms: _267  and  _270
REMARK  118  A    between atoms: _270  and  _271
REMARK  119  A    between atoms: _277  and  _279
REMARK  120  A    between atoms: _279  and  _280
REMARK  121  A    between atoms: _279  and  _282
REMARK  122  A    between atoms: _282  and  _283
REMARK  123  A    between atoms: _283  and  _284
REMARK  124  A    between atoms: _289  and  _291
REMARK  125  A    between atoms: _291  and  _292
REMARK  126  A    between atoms: _291  and  _294
REMARK  127  A    between atoms: _294  and  _295
REMARK                            x       y       z     vdW  Elec       q    Type
REMARK                         _______ _______ _______ _____ _____    ______ ____
ROOT
ATOM      1  O   HOH     1      33.884  36.407   9.386  0.00  0.00    +0.000 OA
ENDROOT
TORSDOF 0
REMARK  Name = ../refined-set-2016/3djq/3djq_pocket.pdb
REMARK  127 active torsions:
REMARK  status: ('A' for Active; 'I' for Inactive)
REMARK    1  A    between atoms: _1  and  _3
REMARK    2  A    between atoms: _3  and  _4
REMARK    3  A    between atoms: _3  and  _6
REMARK    4  A    between atoms: _6  and  _7
REMARK    5  A    between atoms: _7  and  _8
REMARK    6  A    between atoms: _10  and  _12
REMARK    7  A    between atoms: _12  and  _13
REMARK    8  A    between atoms: _12  and  _15
REMARK    9  A    between atoms: _15  and  _16
REMARK   10  A    between atoms: _16  and  _17
REMARK   11  A    between atoms: _19  and  _21
REMARK   12  A    between atoms: _21  and  _22
REMARK   13  A    between atoms: _21  and  _24
REMARK   14  A    between atoms: _24  and  _25
REMARK   15  A    between atoms: _25  and  _26
REMARK   16  A    between atoms: _26  and  _27
REMARK   17  A    between atoms: _27  and  _28
REMARK   18  A    between atoms: _32  and  _34
REMARK   19  A    between atoms: _34  and  _35
REMARK   20  A    between atoms: _34  and  _37
REMARK   21  A    between atoms: _37  and  _38
REMARK   22  A    between atoms: _38  and  _39
REMARK   23  A    between atoms: _39  and  _40
REMARK   24  A    between atoms: _40  and  _41
REMARK   25  A    between atoms: _46  and  _47
REMARK   26  A    between atoms: _52  and  _54
REMARK   27  A    between atoms: _54  and  _55
REMARK   28  A    between atoms: _54  and  _57
REMARK   29  A    between atoms: _60  and  _62
REMARK   30  A    between atoms: _62  and  _63
REMARK   31  A    between atoms: _62  and  _65
REMARK   32  A    between atoms: _65  and  _66
REMARK   33  A    between atoms: _71  and  _73
REMARK   34  A    between atoms: _73  and  _74
REMARK   35  A    between atoms: _73  and  _76
REMARK   36  A    between atoms: _76  and  _77
REMARK   37  A    between atoms: _80  and  _82
REMARK   38  A    between atoms: _82  and  _83
REMARK   39  A    between atoms: _82  and  _85
REMARK   40  A    between atoms: _85  and  _86
REMARK   41  A    between atoms: _92  and  _94
REMARK   42  A    between atoms: _94  and  _95
REMARK   43  A    between atoms: _94  and  _97
REMARK   44  A    between atoms: _97  and  _98
REMARK   45  A    between atoms: _98  and  _99
REMARK   46  A    between atoms: _99  and  _100
REMARK   47  A    between atoms: _100  and  _101
REMARK   48  A    between atoms: _105  and  _107
REMARK   49  A    between atoms: _107  and  _108
REMARK   50  A    between atoms: _107  and  _110
REMARK   51  A    between atoms: _110  and  _111
REMARK   52  A    between atoms: _116  and  _118
REMARK   53  A    between atoms: _118  and  _119
REMARK   54  A    between atoms: _118  and  _121
REMARK   55  A    between atoms: _121  and  _122
REMARK   56  A    between atoms: _125  and  _127
REMARK   57  A    between atoms: _127  and  _128
REMARK   58  A    between atoms: _127  and  _130
REMARK   59  A    between atoms: _130  and  _131
REMARK   60  A    between atoms: _134  and  _136
REMARK   61  A    between atoms: _136  and  _137
REMARK   62  A    between atoms: _136  and  _139
REMARK   63  A    between atoms: _139  and  _140
REMARK   64  A    between atoms: _143  and  _145
REMARK   65  A    between atoms: _145  and  _146
REMARK   66  A    between atoms: _145  and  _148
REMARK   67  A    between atoms: _150  and  _152
REMARK   68  A    between atoms: _152  and  _153
REMARK   69  A    between atoms: _152  and  _155
REMARK   70  A    between atoms: _155  and  _156
REMARK   71  A    between atoms: _156  and  _157
REMARK   72  A    between atoms: _157  and  _158
REMARK   73  A    between atoms: _167  and  _169
REMARK   74  A    between atoms: _169  and  _170
REMARK   75  A    between atoms: _169  and  _172
REMARK   76  A    between atoms: _172  and  _173
REMARK   77  A    between atoms: _173  and  _174
REMARK   78  A    between atoms: _174  and  _175
REMARK   79  A    between atoms: _175  and  _176
REMARK   80  A    between atoms: _180  and  _182
REMARK   81  A    between atoms: _182  and  _183
REMARK   82  A    between atoms: _182  and  _185
REMARK   83  A    between atoms: _185  and  _186
REMARK   84  A    between atoms: _189  and  _191
REMARK   85  A    between atoms: _191  and  _192
REMARK   86  A    between atoms: _191  and  _194
REMARK   87  A    between atoms: _197  and  _199
REMARK   88  A    between atoms: _199  and  _200
REMARK   89  A    between atoms: _199  and  _202
REMARK   90  A    between atoms: _202  and  _203
REMARK   91  A    between atoms: _208  and  _210
REMARK   92  A    between atoms: _210  and  _211
REMARK   93  A    between atoms: _210  and  _213
REMARK   94  A    between atoms: _213  and  _214
REMARK   95  A    between atoms: _220  and  _222
REMARK   96  A    between atoms: _222  and  _223
REMARK   97  A    between atoms: _222  and  _225
REMARK   98  A    between atoms: _225  and  _226
REMARK   99  A    between atoms: _229  and  _231
REMARK  100  A    between atoms: _231  and  _232
REMARK  101  A    between atoms: _235  and  _237
REMARK  102  A    between atoms: _237  and  _238
REMARK  103  A    between atoms: _237  and  _240
REMARK  104  A    between atoms: _240  and  _241
REMARK  105  A    between atoms: _243  and  _245
REMARK  106  A    between atoms: _245  and  _246
REMARK  107  A    between atoms: _245  and  _248
REMARK  108  A    between atoms: _252  and  _254
REMARK  109  A    between atoms: _254  and  _255
REMARK  110  A    between atoms: _254  and  _257
REMARK  111  A    between atoms: _257  and  _258
REMARK  112  A    between atoms: _258  and  _259
REMARK  113  A    between atoms: _259  and  _260
REMARK  114  A    between atoms: _260  and  _261
REMARK  115  A    between atoms: _265  and  _267
REMARK  116  A    between atoms: _267  and  _268
REMARK  117  A    between atoms: _267  and  _270
REMARK  118  A    between atoms: _270  and  _271
REMARK  119  A    between atoms: _277  and  _279
REMARK  120  A    between atoms: _279  and  _280
REMARK  121  A    between atoms: _279  and  _282
REMARK  122  A    between atoms: _282  and  _283
REMARK  123  A    between atoms: _283  and  _284
REMARK  124  A    between atoms: _289  and  _291
REMARK  125  A    between atoms: _291  and  _292
REMARK  126  A    between atoms: _291  and  _294
REMARK  127  A    between atoms: _294  and  _295
REMARK                            x       y       z     vdW  Elec       q    Type
REMARK                         _______ _______ _______ _____ _____    ______ ____
ROOT
ATOM      1  O   HOH     1      29.906  35.866  13.764  0.00  0.00    +0.000 OA
ENDROOT
TORSDOF 0
