REMARK  Name = ../refined-set-2016/2qu6/2qu6_pocket.pdb
REMARK  233 active torsions:
REMARK  status: ('A' for Active; 'I' for Inactive)
REMARK    1  A    between atoms: _1  and  _3
REMARK    2  A    between atoms: _3  and  _4
REMARK    3  A    between atoms: _3  and  _6
REMARK    4  A    between atoms: _6  and  _7
REMARK    5  A    between atoms: _7  and  _8
REMARK    6  A    between atoms: _8  and  _9
REMARK    7  A    between atoms: _9  and  _10
REMARK    8  A    between atoms: _15  and  _16
REMARK    9  A    between atoms: _21  and  _23
REMARK   10  A    between atoms: _23  and  _24
REMARK   11  A    between atoms: _23  and  _26
REMARK   12  A    between atoms: _26  and  _27
REMARK   13  A    between atoms: _30  and  _32
REMARK   14  A    between atoms: _32  and  _33
REMARK   15  A    between atoms: _32  and  _35
REMARK   16  A    between atoms: _35  and  _36
REMARK   17  A    between atoms: _36  and  _37
REMARK   18  A    between atoms: _42  and  _44
REMARK   19  A    between atoms: _44  and  _45
REMARK   20  A    between atoms: _44  and  _47
REMARK   21  A    between atoms: _50  and  _52
REMARK   22  A    between atoms: _52  and  _53
REMARK   23  A    between atoms: _52  and  _55
REMARK   24  A    between atoms: _55  and  _56
REMARK   25  A    between atoms: _59  and  _61
REMARK   26  A    between atoms: _61  and  _62
REMARK   27  A    between atoms: _61  and  _64
REMARK   28  A    between atoms: _64  and  _65
REMARK   29  A    between atoms: _65  and  _66
REMARK   30  A    between atoms: _69  and  _71
REMARK   31  A    between atoms: _71  and  _72
REMARK   32  A    between atoms: _71  and  _74
REMARK   33  A    between atoms: _74  and  _75
REMARK   34  A    between atoms: _78  and  _80
REMARK   35  A    between atoms: _80  and  _81
REMARK   36  A    between atoms: _80  and  _83
REMARK   37  A    between atoms: _86  and  _88
REMARK   38  A    between atoms: _88  and  _89
REMARK   39  A    between atoms: _92  and  _94
REMARK   40  A    between atoms: _94  and  _95
REMARK   41  A    between atoms: _94  and  _97
REMARK   42  A    between atoms: _100  and  _102
REMARK   43  A    between atoms: _102  and  _103
REMARK   44  A    between atoms: _102  and  _105
REMARK   45  A    between atoms: _105  and  _106
REMARK   46  A    between atoms: _106  and  _107
REMARK   47  A    between atoms: _107  and  _108
REMARK   48  A    between atoms: _108  and  _109
REMARK   49  A    between atoms: _113  and  _115
REMARK   50  A    between atoms: _115  and  _116
REMARK   51  A    between atoms: _115  and  _118
REMARK   52  A    between atoms: _118  and  _119
REMARK   53  A    between atoms: _119  and  _120
REMARK   54  A    between atoms: _122  and  _124
REMARK   55  A    between atoms: _124  and  _125
REMARK   56  A    between atoms: _128  and  _130
REMARK   57  A    between atoms: _130  and  _131
REMARK   58  A    between atoms: _130  and  _133
REMARK   59  A    between atoms: _133  and  _134
REMARK   60  A    between atoms: _137  and  _139
REMARK   61  A    between atoms: _139  and  _140
REMARK   62  A    between atoms: _139  and  _142
REMARK   63  A    between atoms: _142  and  _143
REMARK   64  A    between atoms: _145  and  _147
REMARK   65  A    between atoms: _147  and  _148
REMARK   66  A    between atoms: _147  and  _150
REMARK   67  A    between atoms: _150  and  _151
REMARK   68  A    between atoms: _151  and  _152
REMARK   69  A    between atoms: _155  and  _157
REMARK   70  A    between atoms: _157  and  _158
REMARK   71  A    between atoms: _157  and  _160
REMARK   72  A    between atoms: _160  and  _161
REMARK   73  A    between atoms: _164  and  _166
REMARK   74  A    between atoms: _166  and  _167
REMARK   75  A    between atoms: _166  and  _169
REMARK   76  A    between atoms: _169  and  _170
REMARK   77  A    between atoms: _173  and  _175
REMARK   78  A    between atoms: _175  and  _176
REMARK   79  A    between atoms: _175  and  _178
REMARK   80  A    between atoms: _178  and  _179
REMARK   81  A    between atoms: _182  and  _184
REMARK   82  A    between atoms: _184  and  _185
REMARK   83  A    between atoms: _184  and  _187
REMARK   84  A    between atoms: _187  and  _188
REMARK   85  A    between atoms: _191  and  _193
REMARK   86  A    between atoms: _193  and  _194
REMARK   87  A    between atoms: _193  and  _196
REMARK   88  A    between atoms: _196  and  _197
REMARK   89  A    between atoms: _202  and  _204
REMARK   90  A    between atoms: _204  and  _205
REMARK   91  A    between atoms: _204  and  _207
REMARK   92  A    between atoms: _210  and  _212
REMARK   93  A    between atoms: _212  and  _213
REMARK   94  A    between atoms: _212  and  _215
REMARK   95  A    between atoms: _218  and  _220
REMARK   96  A    between atoms: _220  and  _221
REMARK   97  A    between atoms: _220  and  _223
REMARK   98  A    between atoms: _223  and  _224
REMARK   99  A    between atoms: _229  and  _231
REMARK  100  A    between atoms: _231  and  _232
REMARK  101  A    between atoms: _231  and  _234
REMARK  102  A    between atoms: _234  and  _235
REMARK  103  A    between atoms: _238  and  _240
REMARK  104  A    between atoms: _240  and  _241
REMARK  105  A    between atoms: _240  and  _243
REMARK  106  A    between atoms: _243  and  _244
REMARK  107  A    between atoms: _247  and  _249
REMARK  108  A    between atoms: _249  and  _250
REMARK  109  A    between atoms: _249  and  _252
REMARK  110  A    between atoms: _255  and  _257
REMARK  111  A    between atoms: _257  and  _258
REMARK  112  A    between atoms: _257  and  _260
REMARK  113  A    between atoms: _260  and  _261
REMARK  114  A    between atoms: _264  and  _266
REMARK  115  A    between atoms: _266  and  _267
REMARK  116  A    between atoms: _266  and  _269
REMARK  117  A    between atoms: _269  and  _270
REMARK  118  A    between atoms: _273  and  _275
REMARK  119  A    between atoms: _275  and  _276
REMARK  120  A    between atoms: _275  and  _278
REMARK  121  A    between atoms: _278  and  _279
REMARK  122  A    between atoms: _279  and  _280
REMARK  123  A    between atoms: _283  and  _285
REMARK  124  A    between atoms: _285  and  _286
REMARK  125  A    between atoms: _285  and  _288
REMARK  126  A    between atoms: _288  and  _289
REMARK  127  A    between atoms: _295  and  _297
REMARK  128  A    between atoms: _297  and  _298
REMARK  129  A    between atoms: _297  and  _300
REMARK  130  A    between atoms: _302  and  _304
REMARK  131  A    between atoms: _304  and  _305
REMARK  132  A    between atoms: _304  and  _307
REMARK  133  A    between atoms: _307  and  _308
REMARK  134  A    between atoms: _308  and  _309
REMARK  135  A    between atoms: _309  and  _310
REMARK  136  A    between atoms: _310  and  _311
REMARK  137  A    between atoms: _315  and  _317
REMARK  138  A    between atoms: _317  and  _318
REMARK  139  A    between atoms: _317  and  _320
REMARK  140  A    between atoms: _320  and  _321
REMARK  141  A    between atoms: _327  and  _329
REMARK  142  A    between atoms: _329  and  _330
REMARK  143  A    between atoms: _332  and  _334
REMARK  144  A    between atoms: _334  and  _335
REMARK  145  A    between atoms: _334  and  _337
REMARK  146  A    between atoms: _337  and  _338
REMARK  147  A    between atoms: _343  and  _345
REMARK  148  A    between atoms: _345  and  _346
REMARK  149  A    between atoms: _348  and  _350
REMARK  150  A    between atoms: _350  and  _351
REMARK  151  A    between atoms: _350  and  _353
REMARK  152  A    between atoms: _353  and  _354
REMARK  153  A    between atoms: _354  and  _355
REMARK  154  A    between atoms: _357  and  _359
REMARK  155  A    between atoms: _359  and  _360
REMARK  156  A    between atoms: _359  and  _362
REMARK  157  A    between atoms: _362  and  _363
REMARK  158  A    between atoms: _369  and  _371
REMARK  159  A    between atoms: _371  and  _372
REMARK  160  A    between atoms: _371  and  _374
REMARK  161  A    between atoms: _374  and  _375
REMARK  162  A    between atoms: _378  and  _380
REMARK  163  A    between atoms: _380  and  _381
REMARK  164  A    between atoms: _380  and  _383
REMARK  165  A    between atoms: _383  and  _384
REMARK  166  A    between atoms: _384  and  _385
REMARK  167  A    between atoms: _385  and  _386
REMARK  168  A    between atoms: _386  and  _387
REMARK  169  A    between atoms: _391  and  _393
REMARK  170  A    between atoms: _393  and  _394
REMARK  171  A    between atoms: _393  and  _396
REMARK  172  A    between atoms: _398  and  _400
REMARK  173  A    between atoms: _400  and  _401
REMARK  174  A    between atoms: _400  and  _403
REMARK  175  A    between atoms: _403  and  _404
REMARK  176  A    between atoms: _407  and  _409
REMARK  177  A    between atoms: _409  and  _410
REMARK  178  A    between atoms: _409  and  _412
REMARK  179  A    between atoms: _412  and  _413
REMARK  180  A    between atoms: _418  and  _420
REMARK  181  A    between atoms: _420  and  _421
REMARK  182  A    between atoms: _420  and  _423
REMARK  183  A    between atoms: _423  and  _424
REMARK  184  A    between atoms: _424  and  _425
REMARK  185  A    between atoms: _425  and  _426
REMARK  186  A    between atoms: _435  and  _437
REMARK  187  A    between atoms: _437  and  _438
REMARK  188  A    between atoms: _437  and  _440
REMARK  189  A    between atoms: _440  and  _441
REMARK  190  A    between atoms: _444  and  _446
REMARK  191  A    between atoms: _446  and  _447
REMARK  192  A    between atoms: _446  and  _449
REMARK  193  A    between atoms: _449  and  _450
REMARK  194  A    between atoms: _455  and  _457
REMARK  195  A    between atoms: _457  and  _458
REMARK  196  A    between atoms: _457  and  _460
REMARK  197  A    between atoms: _460  and  _461
REMARK  198  A    between atoms: _464  and  _466
REMARK  199  A    between atoms: _466  and  _467
REMARK  200  A    between atoms: _466  and  _469
REMARK  201  A    between atoms: _469  and  _470
REMARK  202  A    between atoms: _473  and  _475
REMARK  203  A    between atoms: _475  and  _476
REMARK  204  A    between atoms: _475  and  _478
REMARK  205  A    between atoms: _478  and  _479
REMARK  206  A    between atoms: _481  and  _483
REMARK  207  A    between atoms: _483  and  _484
REMARK  208  A    between atoms: _483  and  _486
REMARK  209  A    between atoms: _486  and  _487
REMARK  210  A    between atoms: _487  and  _488
REMARK  211  A    between atoms: _488  and  _489
REMARK  212  A    between atoms: _489  and  _490
REMARK  213  A    between atoms: _494  and  _496
REMARK  214  A    between atoms: _496  and  _497
REMARK  215  A    between atoms: _496  and  _499
REMARK  216  A    between atoms: _499  and  _500
REMARK  217  A    between atoms: _503  and  _505
REMARK  218  A    between atoms: _505  and  _506
REMARK  219  A    between atoms: _505  and  _508
REMARK  220  A    between atoms: _510  and  _512
REMARK  221  A    between atoms: _512  and  _513
REMARK  222  A    between atoms: _512  and  _515
REMARK  223  A    between atoms: _515  and  _516
REMARK  224  A    between atoms: _519  and  _521
REMARK  225  A    between atoms: _521  and  _522
REMARK  226  A    between atoms: _521  and  _524
REMARK  227  A    between atoms: _524  and  _525
REMARK  228  A    between atoms: _531  and  _533
REMARK  229  A    between atoms: _533  and  _534
REMARK  230  A    between atoms: _536  and  _538
REMARK  231  A    between atoms: _538  and  _539
REMARK  232  A    between atoms: _538  and  _541
REMARK  233  A    between atoms: _541  and  _542
REMARK                            x       y       z     vdW  Elec       q    Type
REMARK                         _______ _______ _______ _____ _____    ______ ____
ROOT
ATOM      1  C   LYS A   1      35.561  21.723  19.498  0.00  0.00    +0.241 C 
ATOM      2  N   PRO A   2      35.745  22.329  20.681  0.00  0.00    -0.272 N 
ATOM      3  CD  PRO A   2      35.444  21.695  21.975  0.00  0.00    +0.094 C 
ATOM      4  CG  PRO A   2      35.028  22.883  22.809  0.00  0.00    +0.024 C 
ATOM      5  CB  PRO A   2      36.033  23.912  22.389  0.00  0.00    +0.031 C 
ATOM      6  CA  PRO A   2      36.102  23.740  20.872  0.00  0.00    +0.152 C 
ATOM      7  O   LYS A   1      35.683  22.324  18.432  0.00  0.00    -0.273 OA
ENDROOT
BRANCH   6   8
ATOM      8  C   PRO A   2      37.492  24.074  20.338  0.00  0.00    +0.241 C 
ATOM      9  O   PRO A   2      38.433  23.298  20.508  0.00  0.00    -0.273 OA
ATOM     10  N   LEU A   3      37.617  25.229  19.692  0.00  0.00    -0.298 N 
ATOM     11  H   LEU A   3      36.781  25.835  19.569  0.00  0.00    +0.150 HD
BRANCH  10  12
ATOM     12  CA  LEU A   3      38.897  25.665  19.152  0.00  0.00    +0.137 C 
BRANCH  12  13
ATOM     13  C   LEU A   3      39.319  26.921  19.906  0.00  0.00    +0.227 C 
ATOM     14  O   LEU A   3      40.253  27.618  19.509  0.00  0.00    -0.286 OA
ENDBRANCH  12  13
BRANCH  12  15
ATOM     15  CB  LEU A   3      38.779  25.967  17.652  0.00  0.00    +0.028 C 
BRANCH  15  16
ATOM     16  CG  LEU A   3      38.394  24.810  16.725  0.00  0.00    +0.002 C 
ATOM     17  CD2 LEU A   3      39.505  23.773  16.694  0.00  0.00    +0.000 C 
ATOM     18  CD1 LEU A   3      38.109  25.348  15.332  0.00  0.00    +0.000 C 
ENDBRANCH  15  16
ENDBRANCH  12  15
ENDBRANCH  10  12
ENDBRANCH   6   8
BRANCH   1  19
ATOM     19  CA  LYS A   1      35.192  20.235  19.536  0.00  0.00    +0.145 C 
BRANCH  19  20
ATOM     20  N   LYS A   1      34.555  19.748  18.311  0.00  0.00    -0.238 NA
ATOM     21  H   LYS A   1      35.138  19.295  17.578  0.00  0.00    +0.142 HD
ENDBRANCH  19  20
BRANCH  19  22
ATOM     22  CB  LYS A   1      36.451  19.410  19.839  0.00  0.00    +0.026 C 
BRANCH  22  23
ATOM     23  CG  LYS A   1      37.604  19.647  18.870  0.00  0.00    -0.000 C 
BRANCH  23  24
ATOM     24  CD  LYS A   1      38.847  18.872  19.278  0.00  0.00    -0.024 C 
BRANCH  24  25
ATOM     25  CE  LYS A   1      40.104  19.375  18.561  0.00  0.00    -0.086 C 
BRANCH  25  26
ATOM     26  NZ  LYS A   1      40.093  19.162  17.089  0.00  0.00    +0.380 N 
ATOM     27  HZ1 LYS A   1      40.013  18.145  16.888  0.00  0.00    -0.089 HD
ATOM     28  HZ2 LYS A   1      40.976  19.529  16.680  0.00  0.00    -0.089 HD
ATOM     29  HZ3 LYS A   1      39.283  19.664  16.673  0.00  0.00    -0.089 HD
ENDBRANCH  25  26
ENDBRANCH  24  25
ENDBRANCH  23  24
ENDBRANCH  22  23
ENDBRANCH  19  22
ENDBRANCH   1  19
TORSDOF 12
REMARK  Name = ../refined-set-2016/2qu6/2qu6_pocket.pdb
REMARK  233 active torsions:
REMARK  status: ('A' for Active; 'I' for Inactive)
REMARK    1  A    between atoms: _1  and  _3
REMARK    2  A    between atoms: _3  and  _4
REMARK    3  A    between atoms: _3  and  _6
REMARK    4  A    between atoms: _6  and  _7
REMARK    5  A    between atoms: _7  and  _8
REMARK    6  A    between atoms: _8  and  _9
REMARK    7  A    between atoms: _9  and  _10
REMARK    8  A    between atoms: _15  and  _16
REMARK    9  A    between atoms: _21  and  _23
REMARK   10  A    between atoms: _23  and  _24
REMARK   11  A    between atoms: _23  and  _26
REMARK   12  A    between atoms: _26  and  _27
REMARK   13  A    between atoms: _30  and  _32
REMARK   14  A    between atoms: _32  and  _33
REMARK   15  A    between atoms: _32  and  _35
REMARK   16  A    between atoms: _35  and  _36
REMARK   17  A    between atoms: _36  and  _37
REMARK   18  A    between atoms: _42  and  _44
REMARK   19  A    between atoms: _44  and  _45
REMARK   20  A    between atoms: _44  and  _47
REMARK   21  A    between atoms: _50  and  _52
REMARK   22  A    between atoms: _52  and  _53
REMARK   23  A    between atoms: _52  and  _55
REMARK   24  A    between atoms: _55  and  _56
REMARK   25  A    between atoms: _59  and  _61
REMARK   26  A    between atoms: _61  and  _62
REMARK   27  A    between atoms: _61  and  _64
REMARK   28  A    between atoms: _64  and  _65
REMARK   29  A    between atoms: _65  and  _66
REMARK   30  A    between atoms: _69  and  _71
REMARK   31  A    between atoms: _71  and  _72
REMARK   32  A    between atoms: _71  and  _74
REMARK   33  A    between atoms: _74  and  _75
REMARK   34  A    between atoms: _78  and  _80
REMARK   35  A    between atoms: _80  and  _81
REMARK   36  A    between atoms: _80  and  _83
REMARK   37  A    between atoms: _86  and  _88
REMARK   38  A    between atoms: _88  and  _89
REMARK   39  A    between atoms: _92  and  _94
REMARK   40  A    between atoms: _94  and  _95
REMARK   41  A    between atoms: _94  and  _97
REMARK   42  A    between atoms: _100  and  _102
REMARK   43  A    between atoms: _102  and  _103
REMARK   44  A    between atoms: _102  and  _105
REMARK   45  A    between atoms: _105  and  _106
REMARK   46  A    between atoms: _106  and  _107
REMARK   47  A    between atoms: _107  and  _108
REMARK   48  A    between atoms: _108  and  _109
REMARK   49  A    between atoms: _113  and  _115
REMARK   50  A    between atoms: _115  and  _116
REMARK   51  A    between atoms: _115  and  _118
REMARK   52  A    between atoms: _118  and  _119
REMARK   53  A    between atoms: _119  and  _120
REMARK   54  A    between atoms: _122  and  _124
REMARK   55  A    between atoms: _124  and  _125
REMARK   56  A    between atoms: _128  and  _130
REMARK   57  A    between atoms: _130  and  _131
REMARK   58  A    between atoms: _130  and  _133
REMARK   59  A    between atoms: _133  and  _134
REMARK   60  A    between atoms: _137  and  _139
REMARK   61  A    between atoms: _139  and  _140
REMARK   62  A    between atoms: _139  and  _142
REMARK   63  A    between atoms: _142  and  _143
REMARK   64  A    between atoms: _145  and  _147
REMARK   65  A    between atoms: _147  and  _148
REMARK   66  A    between atoms: _147  and  _150
REMARK   67  A    between atoms: _150  and  _151
REMARK   68  A    between atoms: _151  and  _152
REMARK   69  A    between atoms: _155  and  _157
REMARK   70  A    between atoms: _157  and  _158
REMARK   71  A    between atoms: _157  and  _160
REMARK   72  A    between atoms: _160  and  _161
REMARK   73  A    between atoms: _164  and  _166
REMARK   74  A    between atoms: _166  and  _167
REMARK   75  A    between atoms: _166  and  _169
REMARK   76  A    between atoms: _169  and  _170
REMARK   77  A    between atoms: _173  and  _175
REMARK   78  A    between atoms: _175  and  _176
REMARK   79  A    between atoms: _175  and  _178
REMARK   80  A    between atoms: _178  and  _179
REMARK   81  A    between atoms: _182  and  _184
REMARK   82  A    between atoms: _184  and  _185
REMARK   83  A    between atoms: _184  and  _187
REMARK   84  A    between atoms: _187  and  _188
REMARK   85  A    between atoms: _191  and  _193
REMARK   86  A    between atoms: _193  and  _194
REMARK   87  A    between atoms: _193  and  _196
REMARK   88  A    between atoms: _196  and  _197
REMARK   89  A    between atoms: _202  and  _204
REMARK   90  A    between atoms: _204  and  _205
REMARK   91  A    between atoms: _204  and  _207
REMARK   92  A    between atoms: _210  and  _212
REMARK   93  A    between atoms: _212  and  _213
REMARK   94  A    between atoms: _212  and  _215
REMARK   95  A    between atoms: _218  and  _220
REMARK   96  A    between atoms: _220  and  _221
REMARK   97  A    between atoms: _220  and  _223
REMARK   98  A    between atoms: _223  and  _224
REMARK   99  A    between atoms: _229  and  _231
REMARK  100  A    between atoms: _231  and  _232
REMARK  101  A    between atoms: _231  and  _234
REMARK  102  A    between atoms: _234  and  _235
REMARK  103  A    between atoms: _238  and  _240
REMARK  104  A    between atoms: _240  and  _241
REMARK  105  A    between atoms: _240  and  _243
REMARK  106  A    between atoms: _243  and  _244
REMARK  107  A    between atoms: _247  and  _249
REMARK  108  A    between atoms: _249  and  _250
REMARK  109  A    between atoms: _249  and  _252
REMARK  110  A    between atoms: _255  and  _257
REMARK  111  A    between atoms: _257  and  _258
REMARK  112  A    between atoms: _257  and  _260
REMARK  113  A    between atoms: _260  and  _261
REMARK  114  A    between atoms: _264  and  _266
REMARK  115  A    between atoms: _266  and  _267
REMARK  116  A    between atoms: _266  and  _269
REMARK  117  A    between atoms: _269  and  _270
REMARK  118  A    between atoms: _273  and  _275
REMARK  119  A    between atoms: _275  and  _276
REMARK  120  A    between atoms: _275  and  _278
REMARK  121  A    between atoms: _278  and  _279
REMARK  122  A    between atoms: _279  and  _280
REMARK  123  A    between atoms: _283  and  _285
REMARK  124  A    between atoms: _285  and  _286
REMARK  125  A    between atoms: _285  and  _288
REMARK  126  A    between atoms: _288  and  _289
REMARK  127  A    between atoms: _295  and  _297
REMARK  128  A    between atoms: _297  and  _298
REMARK  129  A    between atoms: _297  and  _300
REMARK  130  A    between atoms: _302  and  _304
REMARK  131  A    between atoms: _304  and  _305
REMARK  132  A    between atoms: _304  and  _307
REMARK  133  A    between atoms: _307  and  _308
REMARK  134  A    between atoms: _308  and  _309
REMARK  135  A    between atoms: _309  and  _310
REMARK  136  A    between atoms: _310  and  _311
REMARK  137  A    between atoms: _315  and  _317
REMARK  138  A    between atoms: _317  and  _318
REMARK  139  A    between atoms: _317  and  _320
REMARK  140  A    between atoms: _320  and  _321
REMARK  141  A    between atoms: _327  and  _329
REMARK  142  A    between atoms: _329  and  _330
REMARK  143  A    between atoms: _332  and  _334
REMARK  144  A    between atoms: _334  and  _335
REMARK  145  A    between atoms: _334  and  _337
REMARK  146  A    between atoms: _337  and  _338
REMARK  147  A    between atoms: _343  and  _345
REMARK  148  A    between atoms: _345  and  _346
REMARK  149  A    between atoms: _348  and  _350
REMARK  150  A    between atoms: _350  and  _351
REMARK  151  A    between atoms: _350  and  _353
REMARK  152  A    between atoms: _353  and  _354
REMARK  153  A    between atoms: _354  and  _355
REMARK  154  A    between atoms: _357  and  _359
REMARK  155  A    between atoms: _359  and  _360
REMARK  156  A    between atoms: _359  and  _362
REMARK  157  A    between atoms: _362  and  _363
REMARK  158  A    between atoms: _369  and  _371
REMARK  159  A    between atoms: _371  and  _372
REMARK  160  A    between atoms: _371  and  _374
REMARK  161  A    between atoms: _374  and  _375
REMARK  162  A    between atoms: _378  and  _380
REMARK  163  A    between atoms: _380  and  _381
REMARK  164  A    between atoms: _380  and  _383
REMARK  165  A    between atoms: _383  and  _384
REMARK  166  A    between atoms: _384  and  _385
REMARK  167  A    between atoms: _385  and  _386
REMARK  168  A    between atoms: _386  and  _387
REMARK  169  A    between atoms: _391  and  _393
REMARK  170  A    between atoms: _393  and  _394
REMARK  171  A    between atoms: _393  and  _396
REMARK  172  A    between atoms: _398  and  _400
REMARK  173  A    between atoms: _400  and  _401
REMARK  174  A    between atoms: _400  and  _403
REMARK  175  A    between atoms: _403  and  _404
REMARK  176  A    between atoms: _407  and  _409
REMARK  177  A    between atoms: _409  and  _410
REMARK  178  A    between atoms: _409  and  _412
REMARK  179  A    between atoms: _412  and  _413
REMARK  180  A    between atoms: _418  and  _420
REMARK  181  A    between atoms: _420  and  _421
REMARK  182  A    between atoms: _420  and  _423
REMARK  183  A    between atoms: _423  and  _424
REMARK  184  A    between atoms: _424  and  _425
REMARK  185  A    between atoms: _425  and  _426
REMARK  186  A    between atoms: _435  and  _437
REMARK  187  A    between atoms: _437  and  _438
REMARK  188  A    between atoms: _437  and  _440
REMARK  189  A    between atoms: _440  and  _441
REMARK  190  A    between atoms: _444  and  _446
REMARK  191  A    between atoms: _446  and  _447
REMARK  192  A    between atoms: _446  and  _449
REMARK  193  A    between atoms: _449  and  _450
REMARK  194  A    between atoms: _455  and  _457
REMARK  195  A    between atoms: _457  and  _458
REMARK  196  A    between atoms: _457  and  _460
REMARK  197  A    between atoms: _460  and  _461
REMARK  198  A    between atoms: _464  and  _466
REMARK  199  A    between atoms: _466  and  _467
REMARK  200  A    between atoms: _466  and  _469
REMARK  201  A    between atoms: _469  and  _470
REMARK  202  A    between atoms: _473  and  _475
REMARK  203  A    between atoms: _475  and  _476
REMARK  204  A    between atoms: _475  and  _478
REMARK  205  A    between atoms: _478  and  _479
REMARK  206  A    between atoms: _481  and  _483
REMARK  207  A    between atoms: _483  and  _484
REMARK  208  A    between atoms: _483  and  _486
REMARK  209  A    between atoms: _486  and  _487
REMARK  210  A    between atoms: _487  and  _488
REMARK  211  A    between atoms: _488  and  _489
REMARK  212  A    between atoms: _489  and  _490
REMARK  213  A    between atoms: _494  and  _496
REMARK  214  A    between atoms: _496  and  _497
REMARK  215  A    between atoms: _496  and  _499
REMARK  216  A    between atoms: _499  and  _500
REMARK  217  A    between atoms: _503  and  _505
REMARK  218  A    between atoms: _505  and  _506
REMARK  219  A    between atoms: _505  and  _508
REMARK  220  A    between atoms: _510  and  _512
REMARK  221  A    between atoms: _512  and  _513
REMARK  222  A    between atoms: _512  and  _515
REMARK  223  A    between atoms: _515  and  _516
REMARK  224  A    between atoms: _519  and  _521
REMARK  225  A    between atoms: _521  and  _522
REMARK  226  A    between atoms: _521  and  _524
REMARK  227  A    between atoms: _524  and  _525
REMARK  228  A    between atoms: _531  and  _533
REMARK  229  A    between atoms: _533  and  _534
REMARK  230  A    between atoms: _536  and  _538
REMARK  231  A    between atoms: _538  and  _539
REMARK  232  A    between atoms: _538  and  _541
REMARK  233  A    between atoms: _541  and  _542
REMARK                            x       y       z     vdW  Elec       q    Type
REMARK                         _______ _______ _______ _____ _____    ______ ____
ROOT
ATOM      1  C   VAL A   2      34.947  27.648  18.297  0.00  0.00    +0.241 C 
ATOM      2  O   VAL A   2      35.664  27.131  19.147  0.00  0.00    -0.273 OA
ATOM      3  N   ILE A   3      34.262  26.931  17.420  0.00  0.00    -0.297 N 
ATOM      4  H   ILE A   3      33.654  27.403  16.720  0.00  0.00    +0.150 HD
ENDROOT
BRANCH   3   5
ATOM      5  CA  ILE A   3      34.364  25.481  17.440  0.00  0.00    +0.149 C 
BRANCH   5   6
ATOM      6  C   ILE A   3      34.501  24.910  16.039  0.00  0.00    +0.241 C 
ATOM      7  N   GLU A   4      35.053  23.709  15.978  0.00  0.00    -0.298 N 
ATOM      8  H   GLU A   4      35.352  23.251  16.862  0.00  0.00    +0.150 HD
ATOM      9  O   ILE A   3      34.122  25.537  15.049  0.00  0.00    -0.273 OA
BRANCH   7  10
ATOM     10  CA  GLU A   4      35.257  23.008  14.727  0.00  0.00    +0.137 C 
BRANCH  10  11
ATOM     11  C   GLU A   4      33.936  22.362  14.326  0.00  0.00    +0.227 C 
ATOM     12  O   GLU A   4      33.115  22.046  15.180  0.00  0.00    -0.286 OA
ENDBRANCH  10  11
BRANCH  10  13
ATOM     13  CB  GLU A   4      36.327  21.933  14.930  0.00  0.00    +0.039 C 
BRANCH  13  14
ATOM     14  CG  GLU A   4      36.708  21.173  13.690  0.00  0.00    +0.116 C 
BRANCH  14  15
ATOM     15  CD  GLU A   4      37.742  20.102  13.966  0.00  0.00    +0.365 C 
ATOM     16  OE2 GLU A   4      38.794  20.412  14.569  0.00  0.00    -0.246 OA
ATOM     17  OE1 GLU A   4      37.498  18.942  13.571  0.00  0.00    -0.246 OA
ENDBRANCH  14  15
ENDBRANCH  13  14
ENDBRANCH  10  13
ENDBRANCH   7  10
ENDBRANCH   5   6
BRANCH   5  18
ATOM     18  CB  ILE A   3      33.134  24.840  18.109  0.00  0.00    +0.027 C 
ATOM     19  CG2 ILE A   3      33.053  25.255  19.581  0.00  0.00    +0.002 C 
BRANCH  18  20
ATOM     20  CG1 ILE A   3      31.876  25.263  17.361  0.00  0.00    +0.002 C 
ATOM     21  CD1 ILE A   3      30.610  24.757  17.987  0.00  0.00    +0.000 C 
ENDBRANCH  18  20
ENDBRANCH   5  18
ENDBRANCH   3   5
BRANCH   1  22
ATOM     22  CA  VAL A   2      34.803  29.158  18.226  0.00  0.00    +0.148 C 
BRANCH  22  24
ATOM     23  C   GLN A   1      33.279  30.101  19.870  0.00  0.00    +0.238 C 
ATOM     24  N   VAL A   2      34.462  29.584  19.567  0.00  0.00    -0.297 N 
ATOM     25  H   VAL A   2      35.171  29.481  20.321  0.00  0.00    +0.150 HD
ATOM     26  O   GLN A   1      32.381  30.286  19.042  0.00  0.00    -0.274 OA
BRANCH  23  27
ATOM     27  CA  GLN A   1      33.095  30.465  21.331  0.00  0.00    +0.145 C 
BRANCH  27  28
ATOM     28  N   GLN A   1      32.373  31.711  21.521  0.00  0.00    -0.238 NA
ATOM     29  H   GLN A   1      31.811  32.108  20.741  0.00  0.00    +0.142 HD
ENDBRANCH  27  28
BRANCH  27  30
ATOM     30  CB  GLN A   1      32.366  29.330  22.037  0.00  0.00    +0.036 C 
BRANCH  30  31
ATOM     31  CG  GLN A   1      31.192  28.766  21.265  0.00  0.00    +0.087 C 
BRANCH  31  32
ATOM     32  CD  GLN A   1      30.203  28.076  22.174  0.00  0.00    +0.219 C 
ATOM     33  OE1 GLN A   1      29.275  28.703  22.689  0.00  0.00    -0.275 OA
ATOM     34  NE2 GLN A   1      30.406  26.782  22.398  0.00  0.00    -0.329 N 
ATOM     35 HE21 GLN A   1      29.768  26.257  23.030  0.00  0.00    +0.145 HD
ATOM     36 HE22 GLN A   1      31.203  26.294  21.941  0.00  0.00    +0.145 HD
ENDBRANCH  31  32
ENDBRANCH  30  31
ENDBRANCH  27  30
ENDBRANCH  23  27
ENDBRANCH  22  24
BRANCH  22  37
ATOM     37  CB  VAL A   2      36.144  29.763  17.767  0.00  0.00    +0.027 C 
ATOM     38  CG2 VAL A   2      36.060  31.276  17.762  0.00  0.00    +0.002 C 
ATOM     39  CG1 VAL A   2      36.502  29.236  16.401  0.00  0.00    +0.002 C 
ENDBRANCH  22  37
ENDBRANCH   1  22
TORSDOF 17
REMARK  Name = ../refined-set-2016/2qu6/2qu6_pocket.pdb
REMARK  233 active torsions:
REMARK  status: ('A' for Active; 'I' for Inactive)
REMARK    1  A    between atoms: _1  and  _3
REMARK    2  A    between atoms: _3  and  _4
REMARK    3  A    between atoms: _3  and  _6
REMARK    4  A    between atoms: _6  and  _7
REMARK    5  A    between atoms: _7  and  _8
REMARK    6  A    between atoms: _8  and  _9
REMARK    7  A    between atoms: _9  and  _10
REMARK    8  A    between atoms: _15  and  _16
REMARK    9  A    between atoms: _21  and  _23
REMARK   10  A    between atoms: _23  and  _24
REMARK   11  A    between atoms: _23  and  _26
REMARK   12  A    between atoms: _26  and  _27
REMARK   13  A    between atoms: _30  and  _32
REMARK   14  A    between atoms: _32  and  _33
REMARK   15  A    between atoms: _32  and  _35
REMARK   16  A    between atoms: _35  and  _36
REMARK   17  A    between atoms: _36  and  _37
REMARK   18  A    between atoms: _42  and  _44
REMARK   19  A    between atoms: _44  and  _45
REMARK   20  A    between atoms: _44  and  _47
REMARK   21  A    between atoms: _50  and  _52
REMARK   22  A    between atoms: _52  and  _53
REMARK   23  A    between atoms: _52  and  _55
REMARK   24  A    between atoms: _55  and  _56
REMARK   25  A    between atoms: _59  and  _61
REMARK   26  A    between atoms: _61  and  _62
REMARK   27  A    between atoms: _61  and  _64
REMARK   28  A    between atoms: _64  and  _65
REMARK   29  A    between atoms: _65  and  _66
REMARK   30  A    between atoms: _69  and  _71
REMARK   31  A    between atoms: _71  and  _72
REMARK   32  A    between atoms: _71  and  _74
REMARK   33  A    between atoms: _74  and  _75
REMARK   34  A    between atoms: _78  and  _80
REMARK   35  A    between atoms: _80  and  _81
REMARK   36  A    between atoms: _80  and  _83
REMARK   37  A    between atoms: _86  and  _88
REMARK   38  A    between atoms: _88  and  _89
REMARK   39  A    between atoms: _92  and  _94
REMARK   40  A    between atoms: _94  and  _95
REMARK   41  A    between atoms: _94  and  _97
REMARK   42  A    between atoms: _100  and  _102
REMARK   43  A    between atoms: _102  and  _103
REMARK   44  A    between atoms: _102  and  _105
REMARK   45  A    between atoms: _105  and  _106
REMARK   46  A    between atoms: _106  and  _107
REMARK   47  A    between atoms: _107  and  _108
REMARK   48  A    between atoms: _108  and  _109
REMARK   49  A    between atoms: _113  and  _115
REMARK   50  A    between atoms: _115  and  _116
REMARK   51  A    between atoms: _115  and  _118
REMARK   52  A    between atoms: _118  and  _119
REMARK   53  A    between atoms: _119  and  _120
REMARK   54  A    between atoms: _122  and  _124
REMARK   55  A    between atoms: _124  and  _125
REMARK   56  A    between atoms: _128  and  _130
REMARK   57  A    between atoms: _130  and  _131
REMARK   58  A    between atoms: _130  and  _133
REMARK   59  A    between atoms: _133  and  _134
REMARK   60  A    between atoms: _137  and  _139
REMARK   61  A    between atoms: _139  and  _140
REMARK   62  A    between atoms: _139  and  _142
REMARK   63  A    between atoms: _142  and  _143
REMARK   64  A    between atoms: _145  and  _147
REMARK   65  A    between atoms: _147  and  _148
REMARK   66  A    between atoms: _147  and  _150
REMARK   67  A    between atoms: _150  and  _151
REMARK   68  A    between atoms: _151  and  _152
REMARK   69  A    between atoms: _155  and  _157
REMARK   70  A    between atoms: _157  and  _158
REMARK   71  A    between atoms: _157  and  _160
REMARK   72  A    between atoms: _160  and  _161
REMARK   73  A    between atoms: _164  and  _166
REMARK   74  A    between atoms: _166  and  _167
REMARK   75  A    between atoms: _166  and  _169
REMARK   76  A    between atoms: _169  and  _170
REMARK   77  A    between atoms: _173  and  _175
REMARK   78  A    between atoms: _175  and  _176
REMARK   79  A    between atoms: _175  and  _178
REMARK   80  A    between atoms: _178  and  _179
REMARK   81  A    between atoms: _182  and  _184
REMARK   82  A    between atoms: _184  and  _185
REMARK   83  A    between atoms: _184  and  _187
REMARK   84  A    between atoms: _187  and  _188
REMARK   85  A    between atoms: _191  and  _193
REMARK   86  A    between atoms: _193  and  _194
REMARK   87  A    between atoms: _193  and  _196
REMARK   88  A    between atoms: _196  and  _197
REMARK   89  A    between atoms: _202  and  _204
REMARK   90  A    between atoms: _204  and  _205
REMARK   91  A    between atoms: _204  and  _207
REMARK   92  A    between atoms: _210  and  _212
REMARK   93  A    between atoms: _212  and  _213
REMARK   94  A    between atoms: _212  and  _215
REMARK   95  A    between atoms: _218  and  _220
REMARK   96  A    between atoms: _220  and  _221
REMARK   97  A    between atoms: _220  and  _223
REMARK   98  A    between atoms: _223  and  _224
REMARK   99  A    between atoms: _229  and  _231
REMARK  100  A    between atoms: _231  and  _232
REMARK  101  A    between atoms: _231  and  _234
REMARK  102  A    between atoms: _234  and  _235
REMARK  103  A    between atoms: _238  and  _240
REMARK  104  A    between atoms: _240  and  _241
REMARK  105  A    between atoms: _240  and  _243
REMARK  106  A    between atoms: _243  and  _244
REMARK  107  A    between atoms: _247  and  _249
REMARK  108  A    between atoms: _249  and  _250
REMARK  109  A    between atoms: _249  and  _252
REMARK  110  A    between atoms: _255  and  _257
REMARK  111  A    between atoms: _257  and  _258
REMARK  112  A    between atoms: _257  and  _260
REMARK  113  A    between atoms: _260  and  _261
REMARK  114  A    between atoms: _264  and  _266
REMARK  115  A    between atoms: _266  and  _267
REMARK  116  A    between atoms: _266  and  _269
REMARK  117  A    between atoms: _269  and  _270
REMARK  118  A    between atoms: _273  and  _275
REMARK  119  A    between atoms: _275  and  _276
REMARK  120  A    between atoms: _275  and  _278
REMARK  121  A    between atoms: _278  and  _279
REMARK  122  A    between atoms: _279  and  _280
REMARK  123  A    between atoms: _283  and  _285
REMARK  124  A    between atoms: _285  and  _286
REMARK  125  A    between atoms: _285  and  _288
REMARK  126  A    between atoms: _288  and  _289
REMARK  127  A    between atoms: _295  and  _297
REMARK  128  A    between atoms: _297  and  _298
REMARK  129  A    between atoms: _297  and  _300
REMARK  130  A    between atoms: _302  and  _304
REMARK  131  A    between atoms: _304  and  _305
REMARK  132  A    between atoms: _304  and  _307
REMARK  133  A    between atoms: _307  and  _308
REMARK  134  A    between atoms: _308  and  _309
REMARK  135  A    between atoms: _309  and  _310
REMARK  136  A    between atoms: _310  and  _311
REMARK  137  A    between atoms: _315  and  _317
REMARK  138  A    between atoms: _317  and  _318
REMARK  139  A    between atoms: _317  and  _320
REMARK  140  A    between atoms: _320  and  _321
REMARK  141  A    between atoms: _327  and  _329
REMARK  142  A    between atoms: _329  and  _330
REMARK  143  A    between atoms: _332  and  _334
REMARK  144  A    between atoms: _334  and  _335
REMARK  145  A    between atoms: _334  and  _337
REMARK  146  A    between atoms: _337  and  _338
REMARK  147  A    between atoms: _343  and  _345
REMARK  148  A    between atoms: _345  and  _346
REMARK  149  A    between atoms: _348  and  _350
REMARK  150  A    between atoms: _350  and  _351
REMARK  151  A    between atoms: _350  and  _353
REMARK  152  A    between atoms: _353  and  _354
REMARK  153  A    between atoms: _354  and  _355
REMARK  154  A    between atoms: _357  and  _359
REMARK  155  A    between atoms: _359  and  _360
REMARK  156  A    between atoms: _359  and  _362
REMARK  157  A    between atoms: _362  and  _363
REMARK  158  A    between atoms: _369  and  _371
REMARK  159  A    between atoms: _371  and  _372
REMARK  160  A    between atoms: _371  and  _374
REMARK  161  A    between atoms: _374  and  _375
REMARK  162  A    between atoms: _378  and  _380
REMARK  163  A    between atoms: _380  and  _381
REMARK  164  A    between atoms: _380  and  _383
REMARK  165  A    between atoms: _383  and  _384
REMARK  166  A    between atoms: _384  and  _385
REMARK  167  A    between atoms: _385  and  _386
REMARK  168  A    between atoms: _386  and  _387
REMARK  169  A    between atoms: _391  and  _393
REMARK  170  A    between atoms: _393  and  _394
REMARK  171  A    between atoms: _393  and  _396
REMARK  172  A    between atoms: _398  and  _400
REMARK  173  A    between atoms: _400  and  _401
REMARK  174  A    between atoms: _400  and  _403
REMARK  175  A    between atoms: _403  and  _404
REMARK  176  A    between atoms: _407  and  _409
REMARK  177  A    between atoms: _409  and  _410
REMARK  178  A    between atoms: _409  and  _412
REMARK  179  A    between atoms: _412  and  _413
REMARK  180  A    between atoms: _418  and  _420
REMARK  181  A    between atoms: _420  and  _421
REMARK  182  A    between atoms: _420  and  _423
REMARK  183  A    between atoms: _423  and  _424
REMARK  184  A    between atoms: _424  and  _425
REMARK  185  A    between atoms: _425  and  _426
REMARK  186  A    between atoms: _435  and  _437
REMARK  187  A    between atoms: _437  and  _438
REMARK  188  A    between atoms: _437  and  _440
REMARK  189  A    between atoms: _440  and  _441
REMARK  190  A    between atoms: _444  and  _446
REMARK  191  A    between atoms: _446  and  _447
REMARK  192  A    between atoms: _446  and  _449
REMARK  193  A    between atoms: _449  and  _450
REMARK  194  A    between atoms: _455  and  _457
REMARK  195  A    between atoms: _457  and  _458
REMARK  196  A    between atoms: _457  and  _460
REMARK  197  A    between atoms: _460  and  _461
REMARK  198  A    between atoms: _464  and  _466
REMARK  199  A    between atoms: _466  and  _467
REMARK  200  A    between atoms: _466  and  _469
REMARK  201  A    between atoms: _469  and  _470
REMARK  202  A    between atoms: _473  and  _475
REMARK  203  A    between atoms: _475  and  _476
REMARK  204  A    between atoms: _475  and  _478
REMARK  205  A    between atoms: _478  and  _479
REMARK  206  A    between atoms: _481  and  _483
REMARK  207  A    between atoms: _483  and  _484
REMARK  208  A    between atoms: _483  and  _486
REMARK  209  A    between atoms: _486  and  _487
REMARK  210  A    between atoms: _487  and  _488
REMARK  211  A    between atoms: _488  and  _489
REMARK  212  A    between atoms: _489  and  _490
REMARK  213  A    between atoms: _494  and  _496
REMARK  214  A    between atoms: _496  and  _497
REMARK  215  A    between atoms: _496  and  _499
REMARK  216  A    between atoms: _499  and  _500
REMARK  217  A    between atoms: _503  and  _505
REMARK  218  A    between atoms: _505  and  _506
REMARK  219  A    between atoms: _505  and  _508
REMARK  220  A    between atoms: _510  and  _512
REMARK  221  A    between atoms: _512  and  _513
REMARK  222  A    between atoms: _512  and  _515
REMARK  223  A    between atoms: _515  and  _516
REMARK  224  A    between atoms: _519  and  _521
REMARK  225  A    between atoms: _521  and  _522
REMARK  226  A    between atoms: _521  and  _524
REMARK  227  A    between atoms: _524  and  _525
REMARK  228  A    between atoms: _531  and  _533
REMARK  229  A    between atoms: _533  and  _534
REMARK  230  A    between atoms: _536  and  _538
REMARK  231  A    between atoms: _538  and  _539
REMARK  232  A    between atoms: _538  and  _541
REMARK  233  A    between atoms: _541  and  _542
REMARK                            x       y       z     vdW  Elec       q    Type
REMARK                         _______ _______ _______ _____ _____    ______ ____
ROOT
ATOM      1  CA  VAL A   4      32.342  28.321  13.530  0.00  0.00    +0.149 C 
ENDROOT
BRANCH   1   2
ATOM      2  C   VAL A   4      32.424  29.208  14.760  0.00  0.00    +0.241 C 
ATOM      3  O   VAL A   4      32.824  28.761  15.838  0.00  0.00    -0.273 OA
ATOM      4  N   LYS A   5      32.064  30.476  14.597  0.00  0.00    -0.297 N 
ATOM      5  H   LYS A   5      31.793  30.821  13.654  0.00  0.00    +0.150 HD
BRANCH   4   6
ATOM      6  CA  LYS A   5      32.048  31.382  15.730  0.00  0.00    +0.149 C 
BRANCH   6   7
ATOM      7  C   LYS A   5      30.580  31.648  16.045  0.00  0.00    +0.241 C 
ATOM      8  N   MET A   6      30.191  31.378  17.278  0.00  0.00    -0.298 N 
ATOM      9  H   MET A   6      30.884  31.015  17.964  0.00  0.00    +0.150 HD
ATOM     10  O   LYS A   5      29.810  32.074  15.183  0.00  0.00    -0.273 OA
BRANCH   8  11
ATOM     11  CA  MET A   6      28.815  31.579  17.694  0.00  0.00    +0.138 C 
BRANCH  11  12
ATOM     12  C   MET A   6      28.771  32.075  19.132  0.00  0.00    +0.227 C 
ATOM     13  O   MET A   6      29.771  32.036  19.845  0.00  0.00    -0.286 OA
ENDBRANCH  11  12
BRANCH  11  14
ATOM     14  CB  MET A   6      28.059  30.266  17.572  0.00  0.00    +0.039 C 
BRANCH  14  15
ATOM     15  CG  MET A   6      28.629  29.178  18.446  0.00  0.00    +0.060 C 
BRANCH  15  16
ATOM     16  SD  MET A   6      28.054  27.575  17.943  0.00  0.00    -0.139 S 
ATOM     17  CE  MET A   6      26.495  27.481  18.802  0.00  0.00    +0.069 C 
ENDBRANCH  15  16
ENDBRANCH  14  15
ENDBRANCH  11  14
ENDBRANCH   8  11
ENDBRANCH   6   7
BRANCH   6  18
ATOM     18  CB  LYS A   5      32.764  32.702  15.421  0.00  0.00    +0.029 C 
BRANCH  18  19
ATOM     19  CG  LYS A   5      32.712  33.678  16.597  0.00  0.00    +0.000 C 
BRANCH  19  20
ATOM     20  CD  LYS A   5      33.352  35.021  16.305  0.00  0.00    -0.024 C 
BRANCH  20  21
ATOM     21  CE  LYS A   5      34.852  34.937  16.175  0.00  0.00    -0.086 C 
BRANCH  21  22
ATOM     22  NZ  LYS A   5      35.434  36.309  16.158  0.00  0.00    +0.380 N 
ATOM     23  HZ1 LYS A   5      35.191  36.798  17.043  0.00  0.00    -0.089 HD
ATOM     24  HZ2 LYS A   5      36.468  36.244  16.068  0.00  0.00    -0.089 HD
ATOM     25  HZ3 LYS A   5      35.047  36.838  15.351  0.00  0.00    -0.089 HD
ENDBRANCH  21  22
ENDBRANCH  20  21
ENDBRANCH  19  20
ENDBRANCH  18  19
ENDBRANCH   6  18
ENDBRANCH   4   6
ENDBRANCH   1   2
BRANCH   1  27
ATOM     26  C   ALA A   3      34.141  27.603  12.074  0.00  0.00    +0.241 C 
ATOM     27  N   VAL A   4      33.566  27.585  13.268  0.00  0.00    -0.297 N 
ATOM     28  H   VAL A   4      34.001  27.032  14.034  0.00  0.00    +0.150 HD
ATOM     29  O   ALA A   3      33.705  28.265  11.131  0.00  0.00    -0.273 OA
BRANCH  26  30
ATOM     30  CA  ALA A   3      35.388  26.745  11.908  0.00  0.00    +0.149 C 
ATOM     31  CB  ALA A   3      36.645  27.573  12.068  0.00  0.00    +0.031 C 
BRANCH  30  34
ATOM     32  C   VAL A   2      35.186  24.921  10.332  0.00  0.00    +0.241 C 
ATOM     33  O   VAL A   2      35.249  24.081  11.225  0.00  0.00    -0.273 OA
ATOM     34  N   ALA A   3      35.282  26.223  10.557  0.00  0.00    -0.297 N 
ATOM     35  H   ALA A   3      35.281  26.882   9.753  0.00  0.00    +0.150 HD
BRANCH  32  36
ATOM     36  CA  VAL A   2      35.021  24.505   8.881  0.00  0.00    +0.148 C 
BRANCH  36  38
ATOM     37  C   THR A   1      35.773  22.443   7.857  0.00  0.00    +0.241 C 
ATOM     38  N   VAL A   2      35.063  23.052   8.795  0.00  0.00    -0.297 N 
ATOM     39  H   VAL A   2      34.527  22.483   9.481  0.00  0.00    +0.150 HD
ATOM     40  O   THR A   1      36.422  23.051   7.013  0.00  0.00    -0.274 OA
BRANCH  37  41
ATOM     41  CA  THR A   1      35.740  20.928   7.862  0.00  0.00    +0.172 C 
BRANCH  41  42
ATOM     42  N   THR A   1      35.555  20.509   6.478  0.00  0.00    -0.236 NA
ATOM     43  H   THR A   1      36.370  20.176   5.924  0.00  0.00    +0.142 HD
ENDBRANCH  41  42
BRANCH  41  44
ATOM     44  CB  THR A   1      37.065  20.429   8.470  0.00  0.00    +0.135 C 
ATOM     45  CG2 THR A   1      37.196  20.915   9.905  0.00  0.00    +0.034 C 
BRANCH  44  46
ATOM     46  OG1 THR A   1      37.091  18.998   8.466  0.00  0.00    -0.383 OA
ATOM     47  HG1 THR A   1      37.944  18.684   8.858  0.00  0.00    +0.210 HD
ENDBRANCH  44  46
ENDBRANCH  41  44
ENDBRANCH  37  41
ENDBRANCH  36  38
BRANCH  36  48
ATOM     48  CB  VAL A   2      33.665  25.060   8.368  0.00  0.00    +0.027 C 
ATOM     49  CG2 VAL A   2      32.516  24.418   9.149  0.00  0.00    +0.002 C 
ATOM     50  CG1 VAL A   2      33.509  24.785   6.877  0.00  0.00    +0.002 C 
ENDBRANCH  36  48
ENDBRANCH  32  36
ENDBRANCH  30  34
ENDBRANCH  26  30
ENDBRANCH   1  27
BRANCH   1  51
ATOM     51  CB  VAL A   4      31.147  27.341  13.724  0.00  0.00    +0.027 C 
ATOM     52  CG2 VAL A   4      29.852  28.120  13.958  0.00  0.00    +0.002 C 
ATOM     53  CG1 VAL A   4      31.013  26.433  12.514  0.00  0.00    +0.002 C 
ENDBRANCH   1  51
TORSDOF 24
REMARK  Name = ../refined-set-2016/2qu6/2qu6_pocket.pdb
REMARK  233 active torsions:
REMARK  status: ('A' for Active; 'I' for Inactive)
REMARK    1  A    between atoms: _1  and  _3
REMARK    2  A    between atoms: _3  and  _4
REMARK    3  A    between atoms: _3  and  _6
REMARK    4  A    between atoms: _6  and  _7
REMARK    5  A    between atoms: _7  and  _8
REMARK    6  A    between atoms: _8  and  _9
REMARK    7  A    between atoms: _9  and  _10
REMARK    8  A    between atoms: _15  and  _16
REMARK    9  A    between atoms: _21  and  _23
REMARK   10  A    between atoms: _23  and  _24
REMARK   11  A    between atoms: _23  and  _26
REMARK   12  A    between atoms: _26  and  _27
REMARK   13  A    between atoms: _30  and  _32
REMARK   14  A    between atoms: _32  and  _33
REMARK   15  A    between atoms: _32  and  _35
REMARK   16  A    between atoms: _35  and  _36
REMARK   17  A    between atoms: _36  and  _37
REMARK   18  A    between atoms: _42  and  _44
REMARK   19  A    between atoms: _44  and  _45
REMARK   20  A    between atoms: _44  and  _47
REMARK   21  A    between atoms: _50  and  _52
REMARK   22  A    between atoms: _52  and  _53
REMARK   23  A    between atoms: _52  and  _55
REMARK   24  A    between atoms: _55  and  _56
REMARK   25  A    between atoms: _59  and  _61
REMARK   26  A    between atoms: _61  and  _62
REMARK   27  A    between atoms: _61  and  _64
REMARK   28  A    between atoms: _64  and  _65
REMARK   29  A    between atoms: _65  and  _66
REMARK   30  A    between atoms: _69  and  _71
REMARK   31  A    between atoms: _71  and  _72
REMARK   32  A    between atoms: _71  and  _74
REMARK   33  A    between atoms: _74  and  _75
REMARK   34  A    between atoms: _78  and  _80
REMARK   35  A    between atoms: _80  and  _81
REMARK   36  A    between atoms: _80  and  _83
REMARK   37  A    between atoms: _86  and  _88
REMARK   38  A    between atoms: _88  and  _89
REMARK   39  A    between atoms: _92  and  _94
REMARK   40  A    between atoms: _94  and  _95
REMARK   41  A    between atoms: _94  and  _97
REMARK   42  A    between atoms: _100  and  _102
REMARK   43  A    between atoms: _102  and  _103
REMARK   44  A    between atoms: _102  and  _105
REMARK   45  A    between atoms: _105  and  _106
REMARK   46  A    between atoms: _106  and  _107
REMARK   47  A    between atoms: _107  and  _108
REMARK   48  A    between atoms: _108  and  _109
REMARK   49  A    between atoms: _113  and  _115
REMARK   50  A    between atoms: _115  and  _116
REMARK   51  A    between atoms: _115  and  _118
REMARK   52  A    between atoms: _118  and  _119
REMARK   53  A    between atoms: _119  and  _120
REMARK   54  A    between atoms: _122  and  _124
REMARK   55  A    between atoms: _124  and  _125
REMARK   56  A    between atoms: _128  and  _130
REMARK   57  A    between atoms: _130  and  _131
REMARK   58  A    between atoms: _130  and  _133
REMARK   59  A    between atoms: _133  and  _134
REMARK   60  A    between atoms: _137  and  _139
REMARK   61  A    between atoms: _139  and  _140
REMARK   62  A    between atoms: _139  and  _142
REMARK   63  A    between atoms: _142  and  _143
REMARK   64  A    between atoms: _145  and  _147
REMARK   65  A    between atoms: _147  and  _148
REMARK   66  A    between atoms: _147  and  _150
REMARK   67  A    between atoms: _150  and  _151
REMARK   68  A    between atoms: _151  and  _152
REMARK   69  A    between atoms: _155  and  _157
REMARK   70  A    between atoms: _157  and  _158
REMARK   71  A    between atoms: _157  and  _160
REMARK   72  A    between atoms: _160  and  _161
REMARK   73  A    between atoms: _164  and  _166
REMARK   74  A    between atoms: _166  and  _167
REMARK   75  A    between atoms: _166  and  _169
REMARK   76  A    between atoms: _169  and  _170
REMARK   77  A    between atoms: _173  and  _175
REMARK   78  A    between atoms: _175  and  _176
REMARK   79  A    between atoms: _175  and  _178
REMARK   80  A    between atoms: _178  and  _179
REMARK   81  A    between atoms: _182  and  _184
REMARK   82  A    between atoms: _184  and  _185
REMARK   83  A    between atoms: _184  and  _187
REMARK   84  A    between atoms: _187  and  _188
REMARK   85  A    between atoms: _191  and  _193
REMARK   86  A    between atoms: _193  and  _194
REMARK   87  A    between atoms: _193  and  _196
REMARK   88  A    between atoms: _196  and  _197
REMARK   89  A    between atoms: _202  and  _204
REMARK   90  A    between atoms: _204  and  _205
REMARK   91  A    between atoms: _204  and  _207
REMARK   92  A    between atoms: _210  and  _212
REMARK   93  A    between atoms: _212  and  _213
REMARK   94  A    between atoms: _212  and  _215
REMARK   95  A    between atoms: _218  and  _220
REMARK   96  A    between atoms: _220  and  _221
REMARK   97  A    between atoms: _220  and  _223
REMARK   98  A    between atoms: _223  and  _224
REMARK   99  A    between atoms: _229  and  _231
REMARK  100  A    between atoms: _231  and  _232
REMARK  101  A    between atoms: _231  and  _234
REMARK  102  A    between atoms: _234  and  _235
REMARK  103  A    between atoms: _238  and  _240
REMARK  104  A    between atoms: _240  and  _241
REMARK  105  A    between atoms: _240  and  _243
REMARK  106  A    between atoms: _243  and  _244
REMARK  107  A    between atoms: _247  and  _249
REMARK  108  A    between atoms: _249  and  _250
REMARK  109  A    between atoms: _249  and  _252
REMARK  110  A    between atoms: _255  and  _257
REMARK  111  A    between atoms: _257  and  _258
REMARK  112  A    between atoms: _257  and  _260
REMARK  113  A    between atoms: _260  and  _261
REMARK  114  A    between atoms: _264  and  _266
REMARK  115  A    between atoms: _266  and  _267
REMARK  116  A    between atoms: _266  and  _269
REMARK  117  A    between atoms: _269  and  _270
REMARK  118  A    between atoms: _273  and  _275
REMARK  119  A    between atoms: _275  and  _276
REMARK  120  A    between atoms: _275  and  _278
REMARK  121  A    between atoms: _278  and  _279
REMARK  122  A    between atoms: _279  and  _280
REMARK  123  A    between atoms: _283  and  _285
REMARK  124  A    between atoms: _285  and  _286
REMARK  125  A    between atoms: _285  and  _288
REMARK  126  A    between atoms: _288  and  _289
REMARK  127  A    between atoms: _295  and  _297
REMARK  128  A    between atoms: _297  and  _298
REMARK  129  A    between atoms: _297  and  _300
REMARK  130  A    between atoms: _302  and  _304
REMARK  131  A    between atoms: _304  and  _305
REMARK  132  A    between atoms: _304  and  _307
REMARK  133  A    between atoms: _307  and  _308
REMARK  134  A    between atoms: _308  and  _309
REMARK  135  A    between atoms: _309  and  _310
REMARK  136  A    between atoms: _310  and  _311
REMARK  137  A    between atoms: _315  and  _317
REMARK  138  A    between atoms: _317  and  _318
REMARK  139  A    between atoms: _317  and  _320
REMARK  140  A    between atoms: _320  and  _321
REMARK  141  A    between atoms: _327  and  _329
REMARK  142  A    between atoms: _329  and  _330
REMARK  143  A    between atoms: _332  and  _334
REMARK  144  A    between atoms: _334  and  _335
REMARK  145  A    between atoms: _334  and  _337
REMARK  146  A    between atoms: _337  and  _338
REMARK  147  A    between atoms: _343  and  _345
REMARK  148  A    between atoms: _345  and  _346
REMARK  149  A    between atoms: _348  and  _350
REMARK  150  A    between atoms: _350  and  _351
REMARK  151  A    between atoms: _350  and  _353
REMARK  152  A    between atoms: _353  and  _354
REMARK  153  A    between atoms: _354  and  _355
REMARK  154  A    between atoms: _357  and  _359
REMARK  155  A    between atoms: _359  and  _360
REMARK  156  A    between atoms: _359  and  _362
REMARK  157  A    between atoms: _362  and  _363
REMARK  158  A    between atoms: _369  and  _371
REMARK  159  A    between atoms: _371  and  _372
REMARK  160  A    between atoms: _371  and  _374
REMARK  161  A    between atoms: _374  and  _375
REMARK  162  A    between atoms: _378  and  _380
REMARK  163  A    between atoms: _380  and  _381
REMARK  164  A    between atoms: _380  and  _383
REMARK  165  A    between atoms: _383  and  _384
REMARK  166  A    between atoms: _384  and  _385
REMARK  167  A    between atoms: _385  and  _386
REMARK  168  A    between atoms: _386  and  _387
REMARK  169  A    between atoms: _391  and  _393
REMARK  170  A    between atoms: _393  and  _394
REMARK  171  A    between atoms: _393  and  _396
REMARK  172  A    between atoms: _398  and  _400
REMARK  173  A    between atoms: _400  and  _401
REMARK  174  A    between atoms: _400  and  _403
REMARK  175  A    between atoms: _403  and  _404
REMARK  176  A    between atoms: _407  and  _409
REMARK  177  A    between atoms: _409  and  _410
REMARK  178  A    between atoms: _409  and  _412
REMARK  179  A    between atoms: _412  and  _413
REMARK  180  A    between atoms: _418  and  _420
REMARK  181  A    between atoms: _420  and  _421
REMARK  182  A    between atoms: _420  and  _423
REMARK  183  A    between atoms: _423  and  _424
REMARK  184  A    between atoms: _424  and  _425
REMARK  185  A    between atoms: _425  and  _426
REMARK  186  A    between atoms: _435  and  _437
REMARK  187  A    between atoms: _437  and  _438
REMARK  188  A    between atoms: _437  and  _440
REMARK  189  A    between atoms: _440  and  _441
REMARK  190  A    between atoms: _444  and  _446
REMARK  191  A    between atoms: _446  and  _447
REMARK  192  A    between atoms: _446  and  _449
REMARK  193  A    between atoms: _449  and  _450
REMARK  194  A    between atoms: _455  and  _457
REMARK  195  A    between atoms: _457  and  _458
REMARK  196  A    between atoms: _457  and  _460
REMARK  197  A    between atoms: _460  and  _461
REMARK  198  A    between atoms: _464  and  _466
REMARK  199  A    between atoms: _466  and  _467
REMARK  200  A    between atoms: _466  and  _469
REMARK  201  A    between atoms: _469  and  _470
REMARK  202  A    between atoms: _473  and  _475
REMARK  203  A    between atoms: _475  and  _476
REMARK  204  A    between atoms: _475  and  _478
REMARK  205  A    between atoms: _478  and  _479
REMARK  206  A    between atoms: _481  and  _483
REMARK  207  A    between atoms: _483  and  _484
REMARK  208  A    between atoms: _483  and  _486
REMARK  209  A    between atoms: _486  and  _487
REMARK  210  A    between atoms: _487  and  _488
REMARK  211  A    between atoms: _488  and  _489
REMARK  212  A    between atoms: _489  and  _490
REMARK  213  A    between atoms: _494  and  _496
REMARK  214  A    between atoms: _496  and  _497
REMARK  215  A    between atoms: _496  and  _499
REMARK  216  A    between atoms: _499  and  _500
REMARK  217  A    between atoms: _503  and  _505
REMARK  218  A    between atoms: _505  and  _506
REMARK  219  A    between atoms: _505  and  _508
REMARK  220  A    between atoms: _510  and  _512
REMARK  221  A    between atoms: _512  and  _513
REMARK  222  A    between atoms: _512  and  _515
REMARK  223  A    between atoms: _515  and  _516
REMARK  224  A    between atoms: _519  and  _521
REMARK  225  A    between atoms: _521  and  _522
REMARK  226  A    between atoms: _521  and  _524
REMARK  227  A    between atoms: _524  and  _525
REMARK  228  A    between atoms: _531  and  _533
REMARK  229  A    between atoms: _533  and  _534
REMARK  230  A    between atoms: _536  and  _538
REMARK  231  A    between atoms: _538  and  _539
REMARK  232  A    between atoms: _538  and  _541
REMARK  233  A    between atoms: _541  and  _542
REMARK                            x       y       z     vdW  Elec       q    Type
REMARK                         _______ _______ _______ _____ _____    ______ ____
ROOT
ATOM      1  C   ALA A   1      28.667  41.470  16.651  0.00  0.00    +0.238 C 
ATOM      2  N   LEU A   2      28.264  40.224  16.896  0.00  0.00    -0.298 N 
ATOM      3  H   LEU A   2      27.715  40.022  17.756  0.00  0.00    +0.150 HD
ATOM      4  O   ALA A   1      29.330  41.780  15.653  0.00  0.00    -0.274 OA
ENDROOT
BRANCH   1   5
ATOM      5  CA  ALA A   1      28.273  42.522  17.685  0.00  0.00    +0.145 C 
ATOM      6  CB  ALA A   1      29.027  42.277  18.993  0.00  0.00    +0.028 C 
BRANCH   5   7
ATOM      7  N   ALA A   1      26.833  42.505  17.921  0.00  0.00    -0.238 NA
ATOM      8  H   ALA A   1      26.473  42.317  18.878  0.00  0.00    +0.142 HD
ENDBRANCH   5   7
ENDBRANCH   1   5
BRANCH   2   9
ATOM      9  CA  LEU A   2      28.583  39.139  15.974  0.00  0.00    +0.137 C 
BRANCH   9  10
ATOM     10  C   LEU A   2      28.000  39.440  14.587  0.00  0.00    +0.227 C 
ATOM     11  O   LEU A   2      28.693  39.291  13.582  0.00  0.00    -0.286 OA
ENDBRANCH   9  10
BRANCH   9  12
ATOM     12  CB  LEU A   2      28.059  37.798  16.516  0.00  0.00    +0.028 C 
BRANCH  12  13
ATOM     13  CG  LEU A   2      28.521  36.531  15.778  0.00  0.00    +0.002 C 
ATOM     14  CD2 LEU A   2      28.205  35.278  16.599  0.00  0.00    +0.000 C 
ATOM     15  CD1 LEU A   2      30.012  36.628  15.513  0.00  0.00    +0.000 C 
ENDBRANCH  12  13
ENDBRANCH   9  12
ENDBRANCH   2   9
TORSDOF 6
REMARK  Name = ../refined-set-2016/2qu6/2qu6_pocket.pdb
REMARK  233 active torsions:
REMARK  status: ('A' for Active; 'I' for Inactive)
REMARK    1  A    between atoms: _1  and  _3
REMARK    2  A    between atoms: _3  and  _4
REMARK    3  A    between atoms: _3  and  _6
REMARK    4  A    between atoms: _6  and  _7
REMARK    5  A    between atoms: _7  and  _8
REMARK    6  A    between atoms: _8  and  _9
REMARK    7  A    between atoms: _9  and  _10
REMARK    8  A    between atoms: _15  and  _16
REMARK    9  A    between atoms: _21  and  _23
REMARK   10  A    between atoms: _23  and  _24
REMARK   11  A    between atoms: _23  and  _26
REMARK   12  A    between atoms: _26  and  _27
REMARK   13  A    between atoms: _30  and  _32
REMARK   14  A    between atoms: _32  and  _33
REMARK   15  A    between atoms: _32  and  _35
REMARK   16  A    between atoms: _35  and  _36
REMARK   17  A    between atoms: _36  and  _37
REMARK   18  A    between atoms: _42  and  _44
REMARK   19  A    between atoms: _44  and  _45
REMARK   20  A    between atoms: _44  and  _47
REMARK   21  A    between atoms: _50  and  _52
REMARK   22  A    between atoms: _52  and  _53
REMARK   23  A    between atoms: _52  and  _55
REMARK   24  A    between atoms: _55  and  _56
REMARK   25  A    between atoms: _59  and  _61
REMARK   26  A    between atoms: _61  and  _62
REMARK   27  A    between atoms: _61  and  _64
REMARK   28  A    between atoms: _64  and  _65
REMARK   29  A    between atoms: _65  and  _66
REMARK   30  A    between atoms: _69  and  _71
REMARK   31  A    between atoms: _71  and  _72
REMARK   32  A    between atoms: _71  and  _74
REMARK   33  A    between atoms: _74  and  _75
REMARK   34  A    between atoms: _78  and  _80
REMARK   35  A    between atoms: _80  and  _81
REMARK   36  A    between atoms: _80  and  _83
REMARK   37  A    between atoms: _86  and  _88
REMARK   38  A    between atoms: _88  and  _89
REMARK   39  A    between atoms: _92  and  _94
REMARK   40  A    between atoms: _94  and  _95
REMARK   41  A    between atoms: _94  and  _97
REMARK   42  A    between atoms: _100  and  _102
REMARK   43  A    between atoms: _102  and  _103
REMARK   44  A    between atoms: _102  and  _105
REMARK   45  A    between atoms: _105  and  _106
REMARK   46  A    between atoms: _106  and  _107
REMARK   47  A    between atoms: _107  and  _108
REMARK   48  A    between atoms: _108  and  _109
REMARK   49  A    between atoms: _113  and  _115
REMARK   50  A    between atoms: _115  and  _116
REMARK   51  A    between atoms: _115  and  _118
REMARK   52  A    between atoms: _118  and  _119
REMARK   53  A    between atoms: _119  and  _120
REMARK   54  A    between atoms: _122  and  _124
REMARK   55  A    between atoms: _124  and  _125
REMARK   56  A    between atoms: _128  and  _130
REMARK   57  A    between atoms: _130  and  _131
REMARK   58  A    between atoms: _130  and  _133
REMARK   59  A    between atoms: _133  and  _134
REMARK   60  A    between atoms: _137  and  _139
REMARK   61  A    between atoms: _139  and  _140
REMARK   62  A    between atoms: _139  and  _142
REMARK   63  A    between atoms: _142  and  _143
REMARK   64  A    between atoms: _145  and  _147
REMARK   65  A    between atoms: _147  and  _148
REMARK   66  A    between atoms: _147  and  _150
REMARK   67  A    between atoms: _150  and  _151
REMARK   68  A    between atoms: _151  and  _152
REMARK   69  A    between atoms: _155  and  _157
REMARK   70  A    between atoms: _157  and  _158
REMARK   71  A    between atoms: _157  and  _160
REMARK   72  A    between atoms: _160  and  _161
REMARK   73  A    between atoms: _164  and  _166
REMARK   74  A    between atoms: _166  and  _167
REMARK   75  A    between atoms: _166  and  _169
REMARK   76  A    between atoms: _169  and  _170
REMARK   77  A    between atoms: _173  and  _175
REMARK   78  A    between atoms: _175  and  _176
REMARK   79  A    between atoms: _175  and  _178
REMARK   80  A    between atoms: _178  and  _179
REMARK   81  A    between atoms: _182  and  _184
REMARK   82  A    between atoms: _184  and  _185
REMARK   83  A    between atoms: _184  and  _187
REMARK   84  A    between atoms: _187  and  _188
REMARK   85  A    between atoms: _191  and  _193
REMARK   86  A    between atoms: _193  and  _194
REMARK   87  A    between atoms: _193  and  _196
REMARK   88  A    between atoms: _196  and  _197
REMARK   89  A    between atoms: _202  and  _204
REMARK   90  A    between atoms: _204  and  _205
REMARK   91  A    between atoms: _204  and  _207
REMARK   92  A    between atoms: _210  and  _212
REMARK   93  A    between atoms: _212  and  _213
REMARK   94  A    between atoms: _212  and  _215
REMARK   95  A    between atoms: _218  and  _220
REMARK   96  A    between atoms: _220  and  _221
REMARK   97  A    between atoms: _220  and  _223
REMARK   98  A    between atoms: _223  and  _224
REMARK   99  A    between atoms: _229  and  _231
REMARK  100  A    between atoms: _231  and  _232
REMARK  101  A    between atoms: _231  and  _234
REMARK  102  A    between atoms: _234  and  _235
REMARK  103  A    between atoms: _238  and  _240
REMARK  104  A    between atoms: _240  and  _241
REMARK  105  A    between atoms: _240  and  _243
REMARK  106  A    between atoms: _243  and  _244
REMARK  107  A    between atoms: _247  and  _249
REMARK  108  A    between atoms: _249  and  _250
REMARK  109  A    between atoms: _249  and  _252
REMARK  110  A    between atoms: _255  and  _257
REMARK  111  A    between atoms: _257  and  _258
REMARK  112  A    between atoms: _257  and  _260
REMARK  113  A    between atoms: _260  and  _261
REMARK  114  A    between atoms: _264  and  _266
REMARK  115  A    between atoms: _266  and  _267
REMARK  116  A    between atoms: _266  and  _269
REMARK  117  A    between atoms: _269  and  _270
REMARK  118  A    between atoms: _273  and  _275
REMARK  119  A    between atoms: _275  and  _276
REMARK  120  A    between atoms: _275  and  _278
REMARK  121  A    between atoms: _278  and  _279
REMARK  122  A    between atoms: _279  and  _280
REMARK  123  A    between atoms: _283  and  _285
REMARK  124  A    between atoms: _285  and  _286
REMARK  125  A    between atoms: _285  and  _288
REMARK  126  A    between atoms: _288  and  _289
REMARK  127  A    between atoms: _295  and  _297
REMARK  128  A    between atoms: _297  and  _298
REMARK  129  A    between atoms: _297  and  _300
REMARK  130  A    between atoms: _302  and  _304
REMARK  131  A    between atoms: _304  and  _305
REMARK  132  A    between atoms: _304  and  _307
REMARK  133  A    between atoms: _307  and  _308
REMARK  134  A    between atoms: _308  and  _309
REMARK  135  A    between atoms: _309  and  _310
REMARK  136  A    between atoms: _310  and  _311
REMARK  137  A    between atoms: _315  and  _317
REMARK  138  A    between atoms: _317  and  _318
REMARK  139  A    between atoms: _317  and  _320
REMARK  140  A    between atoms: _320  and  _321
REMARK  141  A    between atoms: _327  and  _329
REMARK  142  A    between atoms: _329  and  _330
REMARK  143  A    between atoms: _332  and  _334
REMARK  144  A    between atoms: _334  and  _335
REMARK  145  A    between atoms: _334  and  _337
REMARK  146  A    between atoms: _337  and  _338
REMARK  147  A    between atoms: _343  and  _345
REMARK  148  A    between atoms: _345  and  _346
REMARK  149  A    between atoms: _348  and  _350
REMARK  150  A    between atoms: _350  and  _351
REMARK  151  A    between atoms: _350  and  _353
REMARK  152  A    between atoms: _353  and  _354
REMARK  153  A    between atoms: _354  and  _355
REMARK  154  A    between atoms: _357  and  _359
REMARK  155  A    between atoms: _359  and  _360
REMARK  156  A    between atoms: _359  and  _362
REMARK  157  A    between atoms: _362  and  _363
REMARK  158  A    between atoms: _369  and  _371
REMARK  159  A    between atoms: _371  and  _372
REMARK  160  A    between atoms: _371  and  _374
REMARK  161  A    between atoms: _374  and  _375
REMARK  162  A    between atoms: _378  and  _380
REMARK  163  A    between atoms: _380  and  _381
REMARK  164  A    between atoms: _380  and  _383
REMARK  165  A    between atoms: _383  and  _384
REMARK  166  A    between atoms: _384  and  _385
REMARK  167  A    between atoms: _385  and  _386
REMARK  168  A    between atoms: _386  and  _387
REMARK  169  A    between atoms: _391  and  _393
REMARK  170  A    between atoms: _393  and  _394
REMARK  171  A    between atoms: _393  and  _396
REMARK  172  A    between atoms: _398  and  _400
REMARK  173  A    between atoms: _400  and  _401
REMARK  174  A    between atoms: _400  and  _403
REMARK  175  A    between atoms: _403  and  _404
REMARK  176  A    between atoms: _407  and  _409
REMARK  177  A    between atoms: _409  and  _410
REMARK  178  A    between atoms: _409  and  _412
REMARK  179  A    between atoms: _412  and  _413
REMARK  180  A    between atoms: _418  and  _420
REMARK  181  A    between atoms: _420  and  _421
REMARK  182  A    between atoms: _420  and  _423
REMARK  183  A    between atoms: _423  and  _424
REMARK  184  A    between atoms: _424  and  _425
REMARK  185  A    between atoms: _425  and  _426
REMARK  186  A    between atoms: _435  and  _437
REMARK  187  A    between atoms: _437  and  _438
REMARK  188  A    between atoms: _437  and  _440
REMARK  189  A    between atoms: _440  and  _441
REMARK  190  A    between atoms: _444  and  _446
REMARK  191  A    between atoms: _446  and  _447
REMARK  192  A    between atoms: _446  and  _449
REMARK  193  A    between atoms: _449  and  _450
REMARK  194  A    between atoms: _455  and  _457
REMARK  195  A    between atoms: _457  and  _458
REMARK  196  A    between atoms: _457  and  _460
REMARK  197  A    between atoms: _460  and  _461
REMARK  198  A    between atoms: _464  and  _466
REMARK  199  A    between atoms: _466  and  _467
REMARK  200  A    between atoms: _466  and  _469
REMARK  201  A    between atoms: _469  and  _470
REMARK  202  A    between atoms: _473  and  _475
REMARK  203  A    between atoms: _475  and  _476
REMARK  204  A    between atoms: _475  and  _478
REMARK  205  A    between atoms: _478  and  _479
REMARK  206  A    between atoms: _481  and  _483
REMARK  207  A    between atoms: _483  and  _484
REMARK  208  A    between atoms: _483  and  _486
REMARK  209  A    between atoms: _486  and  _487
REMARK  210  A    between atoms: _487  and  _488
REMARK  211  A    between atoms: _488  and  _489
REMARK  212  A    between atoms: _489  and  _490
REMARK  213  A    between atoms: _494  and  _496
REMARK  214  A    between atoms: _496  and  _497
REMARK  215  A    between atoms: _496  and  _499
REMARK  216  A    between atoms: _499  and  _500
REMARK  217  A    between atoms: _503  and  _505
REMARK  218  A    between atoms: _505  and  _506
REMARK  219  A    between atoms: _505  and  _508
REMARK  220  A    between atoms: _510  and  _512
REMARK  221  A    between atoms: _512  and  _513
REMARK  222  A    between atoms: _512  and  _515
REMARK  223  A    between atoms: _515  and  _516
REMARK  224  A    between atoms: _519  and  _521
REMARK  225  A    between atoms: _521  and  _522
REMARK  226  A    between atoms: _521  and  _524
REMARK  227  A    between atoms: _524  and  _525
REMARK  228  A    between atoms: _531  and  _533
REMARK  229  A    between atoms: _533  and  _534
REMARK  230  A    between atoms: _536  and  _538
REMARK  231  A    between atoms: _538  and  _539
REMARK  232  A    between atoms: _538  and  _541
REMARK  233  A    between atoms: _541  and  _542
REMARK                            x       y       z     vdW  Elec       q    Type
REMARK                         _______ _______ _______ _____ _____    ______ ____
ROOT
ATOM      1  CA  GLU A   2      31.401  41.297  12.491  0.00  0.00    +0.149 C 
ENDROOT
BRANCH   1   3
ATOM      2  C   SER A   1      29.571  42.822  12.190  0.00  0.00    +0.241 C 
ATOM      3  N   GLU A   2      30.129  41.857  12.907  0.00  0.00    -0.297 N 
ATOM      4  H   GLU A   2      29.657  41.503  13.764  0.00  0.00    +0.150 HD
ATOM      5  O   SER A   1      30.105  43.296  11.189  0.00  0.00    -0.274 OA
BRANCH   2   6
ATOM      6  CA  SER A   1      28.220  43.331  12.661  0.00  0.00    +0.174 C 
BRANCH   6   7
ATOM      7  N   SER A   1      27.452  42.254  13.281  0.00  0.00    -0.236 NA
ATOM      8  H   SER A   1      27.343  42.222  14.315  0.00  0.00    +0.142 HD
ENDBRANCH   6   7
BRANCH   6   9
ATOM      9  CB  SER A   1      28.398  44.501  13.628  0.00  0.00    +0.163 C 
BRANCH   9  10
ATOM     10  OG  SER A   1      27.133  45.065  13.942  0.00  0.00    -0.380 OA
ATOM     11  H   SER A   1      26.561  44.376  14.364  0.00  0.00    +0.211 HD
ENDBRANCH   9  10
ENDBRANCH   6   9
ENDBRANCH   2   6
ENDBRANCH   1   3
BRANCH   1  12
ATOM     12  C   GLU A   2      31.151  40.639  11.134  0.00  0.00    +0.241 C 
ATOM     13  N   LEU A   3      30.054  39.888  11.036  0.00  0.00    -0.298 N 
ATOM     14  H   LEU A   3      29.432  39.782  11.863  0.00  0.00    +0.150 HD
ATOM     15  O   GLU A   2      31.926  40.816  10.196  0.00  0.00    -0.273 OA
BRANCH  13  16
ATOM     16  CA  LEU A   3      29.710  39.211   9.787  0.00  0.00    +0.137 C 
BRANCH  16  17
ATOM     17  C   LEU A   3      29.565  40.189   8.629  0.00  0.00    +0.227 C 
ATOM     18  O   LEU A   3      30.083  39.946   7.545  0.00  0.00    -0.286 OA
ENDBRANCH  16  17
BRANCH  16  19
ATOM     19  CB  LEU A   3      28.407  38.419   9.941  0.00  0.00    +0.028 C 
BRANCH  19  20
ATOM     20  CG  LEU A   3      27.761  37.899   8.647  0.00  0.00    +0.002 C 
ATOM     21  CD2 LEU A   3      26.413  37.238   8.986  0.00  0.00    +0.000 C 
ATOM     22  CD1 LEU A   3      28.697  36.926   7.950  0.00  0.00    +0.000 C 
ENDBRANCH  19  20
ENDBRANCH  16  19
ENDBRANCH  13  16
ENDBRANCH   1  12
BRANCH   1  23
ATOM     23  CB  GLU A   2      31.891  40.246  13.487  0.00  0.00    +0.041 C 
BRANCH  23  24
ATOM     24  CG  GLU A   2      33.266  39.683  13.134  0.00  0.00    +0.116 C 
BRANCH  24  25
ATOM     25  CD  GLU A   2      33.722  38.606  14.096  0.00  0.00    +0.365 C 
ATOM     26  OE2 GLU A   2      33.556  38.802  15.316  0.00  0.00    -0.246 OA
ATOM     27  OE1 GLU A   2      34.247  37.570  13.640  0.00  0.00    -0.246 OA
ENDBRANCH  24  25
ENDBRANCH  23  24
ENDBRANCH   1  23
TORSDOF 13
REMARK  Name = ../refined-set-2016/2qu6/2qu6_pocket.pdb
REMARK  233 active torsions:
REMARK  status: ('A' for Active; 'I' for Inactive)
REMARK    1  A    between atoms: _1  and  _3
REMARK    2  A    between atoms: _3  and  _4
REMARK    3  A    between atoms: _3  and  _6
REMARK    4  A    between atoms: _6  and  _7
REMARK    5  A    between atoms: _7  and  _8
REMARK    6  A    between atoms: _8  and  _9
REMARK    7  A    between atoms: _9  and  _10
REMARK    8  A    between atoms: _15  and  _16
REMARK    9  A    between atoms: _21  and  _23
REMARK   10  A    between atoms: _23  and  _24
REMARK   11  A    between atoms: _23  and  _26
REMARK   12  A    between atoms: _26  and  _27
REMARK   13  A    between atoms: _30  and  _32
REMARK   14  A    between atoms: _32  and  _33
REMARK   15  A    between atoms: _32  and  _35
REMARK   16  A    between atoms: _35  and  _36
REMARK   17  A    between atoms: _36  and  _37
REMARK   18  A    between atoms: _42  and  _44
REMARK   19  A    between atoms: _44  and  _45
REMARK   20  A    between atoms: _44  and  _47
REMARK   21  A    between atoms: _50  and  _52
REMARK   22  A    between atoms: _52  and  _53
REMARK   23  A    between atoms: _52  and  _55
REMARK   24  A    between atoms: _55  and  _56
REMARK   25  A    between atoms: _59  and  _61
REMARK   26  A    between atoms: _61  and  _62
REMARK   27  A    between atoms: _61  and  _64
REMARK   28  A    between atoms: _64  and  _65
REMARK   29  A    between atoms: _65  and  _66
REMARK   30  A    between atoms: _69  and  _71
REMARK   31  A    between atoms: _71  and  _72
REMARK   32  A    between atoms: _71  and  _74
REMARK   33  A    between atoms: _74  and  _75
REMARK   34  A    between atoms: _78  and  _80
REMARK   35  A    between atoms: _80  and  _81
REMARK   36  A    between atoms: _80  and  _83
REMARK   37  A    between atoms: _86  and  _88
REMARK   38  A    between atoms: _88  and  _89
REMARK   39  A    between atoms: _92  and  _94
REMARK   40  A    between atoms: _94  and  _95
REMARK   41  A    between atoms: _94  and  _97
REMARK   42  A    between atoms: _100  and  _102
REMARK   43  A    between atoms: _102  and  _103
REMARK   44  A    between atoms: _102  and  _105
REMARK   45  A    between atoms: _105  and  _106
REMARK   46  A    between atoms: _106  and  _107
REMARK   47  A    between atoms: _107  and  _108
REMARK   48  A    between atoms: _108  and  _109
REMARK   49  A    between atoms: _113  and  _115
REMARK   50  A    between atoms: _115  and  _116
REMARK   51  A    between atoms: _115  and  _118
REMARK   52  A    between atoms: _118  and  _119
REMARK   53  A    between atoms: _119  and  _120
REMARK   54  A    between atoms: _122  and  _124
REMARK   55  A    between atoms: _124  and  _125
REMARK   56  A    between atoms: _128  and  _130
REMARK   57  A    between atoms: _130  and  _131
REMARK   58  A    between atoms: _130  and  _133
REMARK   59  A    between atoms: _133  and  _134
REMARK   60  A    between atoms: _137  and  _139
REMARK   61  A    between atoms: _139  and  _140
REMARK   62  A    between atoms: _139  and  _142
REMARK   63  A    between atoms: _142  and  _143
REMARK   64  A    between atoms: _145  and  _147
REMARK   65  A    between atoms: _147  and  _148
REMARK   66  A    between atoms: _147  and  _150
REMARK   67  A    between atoms: _150  and  _151
REMARK   68  A    between atoms: _151  and  _152
REMARK   69  A    between atoms: _155  and  _157
REMARK   70  A    between atoms: _157  and  _158
REMARK   71  A    between atoms: _157  and  _160
REMARK   72  A    between atoms: _160  and  _161
REMARK   73  A    between atoms: _164  and  _166
REMARK   74  A    between atoms: _166  and  _167
REMARK   75  A    between atoms: _166  and  _169
REMARK   76  A    between atoms: _169  and  _170
REMARK   77  A    between atoms: _173  and  _175
REMARK   78  A    between atoms: _175  and  _176
REMARK   79  A    between atoms: _175  and  _178
REMARK   80  A    between atoms: _178  and  _179
REMARK   81  A    between atoms: _182  and  _184
REMARK   82  A    between atoms: _184  and  _185
REMARK   83  A    between atoms: _184  and  _187
REMARK   84  A    between atoms: _187  and  _188
REMARK   85  A    between atoms: _191  and  _193
REMARK   86  A    between atoms: _193  and  _194
REMARK   87  A    between atoms: _193  and  _196
REMARK   88  A    between atoms: _196  and  _197
REMARK   89  A    between atoms: _202  and  _204
REMARK   90  A    between atoms: _204  and  _205
REMARK   91  A    between atoms: _204  and  _207
REMARK   92  A    between atoms: _210  and  _212
REMARK   93  A    between atoms: _212  and  _213
REMARK   94  A    between atoms: _212  and  _215
REMARK   95  A    between atoms: _218  and  _220
REMARK   96  A    between atoms: _220  and  _221
REMARK   97  A    between atoms: _220  and  _223
REMARK   98  A    between atoms: _223  and  _224
REMARK   99  A    between atoms: _229  and  _231
REMARK  100  A    between atoms: _231  and  _232
REMARK  101  A    between atoms: _231  and  _234
REMARK  102  A    between atoms: _234  and  _235
REMARK  103  A    between atoms: _238  and  _240
REMARK  104  A    between atoms: _240  and  _241
REMARK  105  A    between atoms: _240  and  _243
REMARK  106  A    between atoms: _243  and  _244
REMARK  107  A    between atoms: _247  and  _249
REMARK  108  A    between atoms: _249  and  _250
REMARK  109  A    between atoms: _249  and  _252
REMARK  110  A    between atoms: _255  and  _257
REMARK  111  A    between atoms: _257  and  _258
REMARK  112  A    between atoms: _257  and  _260
REMARK  113  A    between atoms: _260  and  _261
REMARK  114  A    between atoms: _264  and  _266
REMARK  115  A    between atoms: _266  and  _267
REMARK  116  A    between atoms: _266  and  _269
REMARK  117  A    between atoms: _269  and  _270
REMARK  118  A    between atoms: _273  and  _275
REMARK  119  A    between atoms: _275  and  _276
REMARK  120  A    between atoms: _275  and  _278
REMARK  121  A    between atoms: _278  and  _279
REMARK  122  A    between atoms: _279  and  _280
REMARK  123  A    between atoms: _283  and  _285
REMARK  124  A    between atoms: _285  and  _286
REMARK  125  A    between atoms: _285  and  _288
REMARK  126  A    between atoms: _288  and  _289
REMARK  127  A    between atoms: _295  and  _297
REMARK  128  A    between atoms: _297  and  _298
REMARK  129  A    between atoms: _297  and  _300
REMARK  130  A    between atoms: _302  and  _304
REMARK  131  A    between atoms: _304  and  _305
REMARK  132  A    between atoms: _304  and  _307
REMARK  133  A    between atoms: _307  and  _308
REMARK  134  A    between atoms: _308  and  _309
REMARK  135  A    between atoms: _309  and  _310
REMARK  136  A    between atoms: _310  and  _311
REMARK  137  A    between atoms: _315  and  _317
REMARK  138  A    between atoms: _317  and  _318
REMARK  139  A    between atoms: _317  and  _320
REMARK  140  A    between atoms: _320  and  _321
REMARK  141  A    between atoms: _327  and  _329
REMARK  142  A    between atoms: _329  and  _330
REMARK  143  A    between atoms: _332  and  _334
REMARK  144  A    between atoms: _334  and  _335
REMARK  145  A    between atoms: _334  and  _337
REMARK  146  A    between atoms: _337  and  _338
REMARK  147  A    between atoms: _343  and  _345
REMARK  148  A    between atoms: _345  and  _346
REMARK  149  A    between atoms: _348  and  _350
REMARK  150  A    between atoms: _350  and  _351
REMARK  151  A    between atoms: _350  and  _353
REMARK  152  A    between atoms: _353  and  _354
REMARK  153  A    between atoms: _354  and  _355
REMARK  154  A    between atoms: _357  and  _359
REMARK  155  A    between atoms: _359  and  _360
REMARK  156  A    between atoms: _359  and  _362
REMARK  157  A    between atoms: _362  and  _363
REMARK  158  A    between atoms: _369  and  _371
REMARK  159  A    between atoms: _371  and  _372
REMARK  160  A    between atoms: _371  and  _374
REMARK  161  A    between atoms: _374  and  _375
REMARK  162  A    between atoms: _378  and  _380
REMARK  163  A    between atoms: _380  and  _381
REMARK  164  A    between atoms: _380  and  _383
REMARK  165  A    between atoms: _383  and  _384
REMARK  166  A    between atoms: _384  and  _385
REMARK  167  A    between atoms: _385  and  _386
REMARK  168  A    between atoms: _386  and  _387
REMARK  169  A    between atoms: _391  and  _393
REMARK  170  A    between atoms: _393  and  _394
REMARK  171  A    between atoms: _393  and  _396
REMARK  172  A    between atoms: _398  and  _400
REMARK  173  A    between atoms: _400  and  _401
REMARK  174  A    between atoms: _400  and  _403
REMARK  175  A    between atoms: _403  and  _404
REMARK  176  A    between atoms: _407  and  _409
REMARK  177  A    between atoms: _409  and  _410
REMARK  178  A    between atoms: _409  and  _412
REMARK  179  A    between atoms: _412  and  _413
REMARK  180  A    between atoms: _418  and  _420
REMARK  181  A    between atoms: _420  and  _421
REMARK  182  A    between atoms: _420  and  _423
REMARK  183  A    between atoms: _423  and  _424
REMARK  184  A    between atoms: _424  and  _425
REMARK  185  A    between atoms: _425  and  _426
REMARK  186  A    between atoms: _435  and  _437
REMARK  187  A    between atoms: _437  and  _438
REMARK  188  A    between atoms: _437  and  _440
REMARK  189  A    between atoms: _440  and  _441
REMARK  190  A    between atoms: _444  and  _446
REMARK  191  A    between atoms: _446  and  _447
REMARK  192  A    between atoms: _446  and  _449
REMARK  193  A    between atoms: _449  and  _450
REMARK  194  A    between atoms: _455  and  _457
REMARK  195  A    between atoms: _457  and  _458
REMARK  196  A    between atoms: _457  and  _460
REMARK  197  A    between atoms: _460  and  _461
REMARK  198  A    between atoms: _464  and  _466
REMARK  199  A    between atoms: _466  and  _467
REMARK  200  A    between atoms: _466  and  _469
REMARK  201  A    between atoms: _469  and  _470
REMARK  202  A    between atoms: _473  and  _475
REMARK  203  A    between atoms: _475  and  _476
REMARK  204  A    between atoms: _475  and  _478
REMARK  205  A    between atoms: _478  and  _479
REMARK  206  A    between atoms: _481  and  _483
REMARK  207  A    between atoms: _483  and  _484
REMARK  208  A    between atoms: _483  and  _486
REMARK  209  A    between atoms: _486  and  _487
REMARK  210  A    between atoms: _487  and  _488
REMARK  211  A    between atoms: _488  and  _489
REMARK  212  A    between atoms: _489  and  _490
REMARK  213  A    between atoms: _494  and  _496
REMARK  214  A    between atoms: _496  and  _497
REMARK  215  A    between atoms: _496  and  _499
REMARK  216  A    between atoms: _499  and  _500
REMARK  217  A    between atoms: _503  and  _505
REMARK  218  A    between atoms: _505  and  _506
REMARK  219  A    between atoms: _505  and  _508
REMARK  220  A    between atoms: _510  and  _512
REMARK  221  A    between atoms: _512  and  _513
REMARK  222  A    between atoms: _512  and  _515
REMARK  223  A    between atoms: _515  and  _516
REMARK  224  A    between atoms: _519  and  _521
REMARK  225  A    between atoms: _521  and  _522
REMARK  226  A    between atoms: _521  and  _524
REMARK  227  A    between atoms: _524  and  _525
REMARK  228  A    between atoms: _531  and  _533
REMARK  229  A    between atoms: _533  and  _534
REMARK  230  A    between atoms: _536  and  _538
REMARK  231  A    between atoms: _538  and  _539
REMARK  232  A    between atoms: _538  and  _541
REMARK  233  A    between atoms: _541  and  _542
REMARK                            x       y       z     vdW  Elec       q    Type
REMARK                         _______ _______ _______ _____ _____    ______ ____
ROOT
ATOM      1  C   ILE A   1      33.001  42.808   7.102  0.00  0.00    +0.238 C 
ATOM      2  N   LEU A   2      33.024  41.529   7.469  0.00  0.00    -0.298 N 
ATOM      3  H   LEU A   2      32.472  41.231   8.298  0.00  0.00    +0.150 HD
ATOM      4  O   ILE A   1      33.637  43.232   6.140  0.00  0.00    -0.274 OA
ENDROOT
BRANCH   1   5
ATOM      5  CA  ILE A   1      32.139  43.760   7.940  0.00  0.00    +0.145 C 
BRANCH   5   6
ATOM      6  N   ILE A   1      30.843  43.195   8.266  0.00  0.00    -0.238 NA
ATOM      7  H   ILE A   1      30.596  43.034   9.263  0.00  0.00    +0.142 HD
ENDBRANCH   5   6
BRANCH   5   8
ATOM      8  CB  ILE A   1      32.889  44.141   9.221  0.00  0.00    +0.025 C 
ATOM      9  CG2 ILE A   1      34.221  44.761   8.875  0.00  0.00    +0.002 C 
BRANCH   8  10
ATOM     10  CG1 ILE A   1      32.049  45.133  10.030  0.00  0.00    +0.002 C 
ATOM     11  CD1 ILE A   1      32.729  45.626  11.285  0.00  0.00    +0.000 C 
ENDBRANCH   8  10
ENDBRANCH   5   8
ENDBRANCH   1   5
BRANCH   2  12
ATOM     12  CA  LEU A   2      33.803  40.532   6.740  0.00  0.00    +0.137 C 
BRANCH  12  13
ATOM     13  C   LEU A   2      33.290  40.425   5.310  0.00  0.00    +0.227 C 
ATOM     14  O   LEU A   2      34.064  40.232   4.368  0.00  0.00    -0.286 OA
ENDBRANCH  12  13
BRANCH  12  15
ATOM     15  CB  LEU A   2      33.703  39.164   7.432  0.00  0.00    +0.028 C 
BRANCH  15  16
ATOM     16  CG  LEU A   2      34.520  38.986   8.720  0.00  0.00    +0.002 C 
ATOM     17  CD2 LEU A   2      34.147  37.696   9.448  0.00  0.00    +0.000 C 
ATOM     18  CD1 LEU A   2      35.988  38.972   8.349  0.00  0.00    +0.000 C 
ENDBRANCH  15  16
ENDBRANCH  12  15
ENDBRANCH   2  12
TORSDOF 8
REMARK  Name = ../refined-set-2016/2qu6/2qu6_pocket.pdb
REMARK  233 active torsions:
REMARK  status: ('A' for Active; 'I' for Inactive)
REMARK    1  A    between atoms: _1  and  _3
REMARK    2  A    between atoms: _3  and  _4
REMARK    3  A    between atoms: _3  and  _6
REMARK    4  A    between atoms: _6  and  _7
REMARK    5  A    between atoms: _7  and  _8
REMARK    6  A    between atoms: _8  and  _9
REMARK    7  A    between atoms: _9  and  _10
REMARK    8  A    between atoms: _15  and  _16
REMARK    9  A    between atoms: _21  and  _23
REMARK   10  A    between atoms: _23  and  _24
REMARK   11  A    between atoms: _23  and  _26
REMARK   12  A    between atoms: _26  and  _27
REMARK   13  A    between atoms: _30  and  _32
REMARK   14  A    between atoms: _32  and  _33
REMARK   15  A    between atoms: _32  and  _35
REMARK   16  A    between atoms: _35  and  _36
REMARK   17  A    between atoms: _36  and  _37
REMARK   18  A    between atoms: _42  and  _44
REMARK   19  A    between atoms: _44  and  _45
REMARK   20  A    between atoms: _44  and  _47
REMARK   21  A    between atoms: _50  and  _52
REMARK   22  A    between atoms: _52  and  _53
REMARK   23  A    between atoms: _52  and  _55
REMARK   24  A    between atoms: _55  and  _56
REMARK   25  A    between atoms: _59  and  _61
REMARK   26  A    between atoms: _61  and  _62
REMARK   27  A    between atoms: _61  and  _64
REMARK   28  A    between atoms: _64  and  _65
REMARK   29  A    between atoms: _65  and  _66
REMARK   30  A    between atoms: _69  and  _71
REMARK   31  A    between atoms: _71  and  _72
REMARK   32  A    between atoms: _71  and  _74
REMARK   33  A    between atoms: _74  and  _75
REMARK   34  A    between atoms: _78  and  _80
REMARK   35  A    between atoms: _80  and  _81
REMARK   36  A    between atoms: _80  and  _83
REMARK   37  A    between atoms: _86  and  _88
REMARK   38  A    between atoms: _88  and  _89
REMARK   39  A    between atoms: _92  and  _94
REMARK   40  A    between atoms: _94  and  _95
REMARK   41  A    between atoms: _94  and  _97
REMARK   42  A    between atoms: _100  and  _102
REMARK   43  A    between atoms: _102  and  _103
REMARK   44  A    between atoms: _102  and  _105
REMARK   45  A    between atoms: _105  and  _106
REMARK   46  A    between atoms: _106  and  _107
REMARK   47  A    between atoms: _107  and  _108
REMARK   48  A    between atoms: _108  and  _109
REMARK   49  A    between atoms: _113  and  _115
REMARK   50  A    between atoms: _115  and  _116
REMARK   51  A    between atoms: _115  and  _118
REMARK   52  A    between atoms: _118  and  _119
REMARK   53  A    between atoms: _119  and  _120
REMARK   54  A    between atoms: _122  and  _124
REMARK   55  A    between atoms: _124  and  _125
REMARK   56  A    between atoms: _128  and  _130
REMARK   57  A    between atoms: _130  and  _131
REMARK   58  A    between atoms: _130  and  _133
REMARK   59  A    between atoms: _133  and  _134
REMARK   60  A    between atoms: _137  and  _139
REMARK   61  A    between atoms: _139  and  _140
REMARK   62  A    between atoms: _139  and  _142
REMARK   63  A    between atoms: _142  and  _143
REMARK   64  A    between atoms: _145  and  _147
REMARK   65  A    between atoms: _147  and  _148
REMARK   66  A    between atoms: _147  and  _150
REMARK   67  A    between atoms: _150  and  _151
REMARK   68  A    between atoms: _151  and  _152
REMARK   69  A    between atoms: _155  and  _157
REMARK   70  A    between atoms: _157  and  _158
REMARK   71  A    between atoms: _157  and  _160
REMARK   72  A    between atoms: _160  and  _161
REMARK   73  A    between atoms: _164  and  _166
REMARK   74  A    between atoms: _166  and  _167
REMARK   75  A    between atoms: _166  and  _169
REMARK   76  A    between atoms: _169  and  _170
REMARK   77  A    between atoms: _173  and  _175
REMARK   78  A    between atoms: _175  and  _176
REMARK   79  A    between atoms: _175  and  _178
REMARK   80  A    between atoms: _178  and  _179
REMARK   81  A    between atoms: _182  and  _184
REMARK   82  A    between atoms: _184  and  _185
REMARK   83  A    between atoms: _184  and  _187
REMARK   84  A    between atoms: _187  and  _188
REMARK   85  A    between atoms: _191  and  _193
REMARK   86  A    between atoms: _193  and  _194
REMARK   87  A    between atoms: _193  and  _196
REMARK   88  A    between atoms: _196  and  _197
REMARK   89  A    between atoms: _202  and  _204
REMARK   90  A    between atoms: _204  and  _205
REMARK   91  A    between atoms: _204  and  _207
REMARK   92  A    between atoms: _210  and  _212
REMARK   93  A    between atoms: _212  and  _213
REMARK   94  A    between atoms: _212  and  _215
REMARK   95  A    between atoms: _218  and  _220
REMARK   96  A    between atoms: _220  and  _221
REMARK   97  A    between atoms: _220  and  _223
REMARK   98  A    between atoms: _223  and  _224
REMARK   99  A    between atoms: _229  and  _231
REMARK  100  A    between atoms: _231  and  _232
REMARK  101  A    between atoms: _231  and  _234
REMARK  102  A    between atoms: _234  and  _235
REMARK  103  A    between atoms: _238  and  _240
REMARK  104  A    between atoms: _240  and  _241
REMARK  105  A    between atoms: _240  and  _243
REMARK  106  A    between atoms: _243  and  _244
REMARK  107  A    between atoms: _247  and  _249
REMARK  108  A    between atoms: _249  and  _250
REMARK  109  A    between atoms: _249  and  _252
REMARK  110  A    between atoms: _255  and  _257
REMARK  111  A    between atoms: _257  and  _258
REMARK  112  A    between atoms: _257  and  _260
REMARK  113  A    between atoms: _260  and  _261
REMARK  114  A    between atoms: _264  and  _266
REMARK  115  A    between atoms: _266  and  _267
REMARK  116  A    between atoms: _266  and  _269
REMARK  117  A    between atoms: _269  and  _270
REMARK  118  A    between atoms: _273  and  _275
REMARK  119  A    between atoms: _275  and  _276
REMARK  120  A    between atoms: _275  and  _278
REMARK  121  A    between atoms: _278  and  _279
REMARK  122  A    between atoms: _279  and  _280
REMARK  123  A    between atoms: _283  and  _285
REMARK  124  A    between atoms: _285  and  _286
REMARK  125  A    between atoms: _285  and  _288
REMARK  126  A    between atoms: _288  and  _289
REMARK  127  A    between atoms: _295  and  _297
REMARK  128  A    between atoms: _297  and  _298
REMARK  129  A    between atoms: _297  and  _300
REMARK  130  A    between atoms: _302  and  _304
REMARK  131  A    between atoms: _304  and  _305
REMARK  132  A    between atoms: _304  and  _307
REMARK  133  A    between atoms: _307  and  _308
REMARK  134  A    between atoms: _308  and  _309
REMARK  135  A    between atoms: _309  and  _310
REMARK  136  A    between atoms: _310  and  _311
REMARK  137  A    between atoms: _315  and  _317
REMARK  138  A    between atoms: _317  and  _318
REMARK  139  A    between atoms: _317  and  _320
REMARK  140  A    between atoms: _320  and  _321
REMARK  141  A    between atoms: _327  and  _329
REMARK  142  A    between atoms: _329  and  _330
REMARK  143  A    between atoms: _332  and  _334
REMARK  144  A    between atoms: _334  and  _335
REMARK  145  A    between atoms: _334  and  _337
REMARK  146  A    between atoms: _337  and  _338
REMARK  147  A    between atoms: _343  and  _345
REMARK  148  A    between atoms: _345  and  _346
REMARK  149  A    between atoms: _348  and  _350
REMARK  150  A    between atoms: _350  and  _351
REMARK  151  A    between atoms: _350  and  _353
REMARK  152  A    between atoms: _353  and  _354
REMARK  153  A    between atoms: _354  and  _355
REMARK  154  A    between atoms: _357  and  _359
REMARK  155  A    between atoms: _359  and  _360
REMARK  156  A    between atoms: _359  and  _362
REMARK  157  A    between atoms: _362  and  _363
REMARK  158  A    between atoms: _369  and  _371
REMARK  159  A    between atoms: _371  and  _372
REMARK  160  A    between atoms: _371  and  _374
REMARK  161  A    between atoms: _374  and  _375
REMARK  162  A    between atoms: _378  and  _380
REMARK  163  A    between atoms: _380  and  _381
REMARK  164  A    between atoms: _380  and  _383
REMARK  165  A    between atoms: _383  and  _384
REMARK  166  A    between atoms: _384  and  _385
REMARK  167  A    between atoms: _385  and  _386
REMARK  168  A    between atoms: _386  and  _387
REMARK  169  A    between atoms: _391  and  _393
REMARK  170  A    between atoms: _393  and  _394
REMARK  171  A    between atoms: _393  and  _396
REMARK  172  A    between atoms: _398  and  _400
REMARK  173  A    between atoms: _400  and  _401
REMARK  174  A    between atoms: _400  and  _403
REMARK  175  A    between atoms: _403  and  _404
REMARK  176  A    between atoms: _407  and  _409
REMARK  177  A    between atoms: _409  and  _410
REMARK  178  A    between atoms: _409  and  _412
REMARK  179  A    between atoms: _412  and  _413
REMARK  180  A    between atoms: _418  and  _420
REMARK  181  A    between atoms: _420  and  _421
REMARK  182  A    between atoms: _420  and  _423
REMARK  183  A    between atoms: _423  and  _424
REMARK  184  A    between atoms: _424  and  _425
REMARK  185  A    between atoms: _425  and  _426
REMARK  186  A    between atoms: _435  and  _437
REMARK  187  A    between atoms: _437  and  _438
REMARK  188  A    between atoms: _437  and  _440
REMARK  189  A    between atoms: _440  and  _441
REMARK  190  A    between atoms: _444  and  _446
REMARK  191  A    between atoms: _446  and  _447
REMARK  192  A    between atoms: _446  and  _449
REMARK  193  A    between atoms: _449  and  _450
REMARK  194  A    between atoms: _455  and  _457
REMARK  195  A    between atoms: _457  and  _458
REMARK  196  A    between atoms: _457  and  _460
REMARK  197  A    between atoms: _460  and  _461
REMARK  198  A    between atoms: _464  and  _466
REMARK  199  A    between atoms: _466  and  _467
REMARK  200  A    between atoms: _466  and  _469
REMARK  201  A    between atoms: _469  and  _470
REMARK  202  A    between atoms: _473  and  _475
REMARK  203  A    between atoms: _475  and  _476
REMARK  204  A    between atoms: _475  and  _478
REMARK  205  A    between atoms: _478  and  _479
REMARK  206  A    between atoms: _481  and  _483
REMARK  207  A    between atoms: _483  and  _484
REMARK  208  A    between atoms: _483  and  _486
REMARK  209  A    between atoms: _486  and  _487
REMARK  210  A    between atoms: _487  and  _488
REMARK  211  A    between atoms: _488  and  _489
REMARK  212  A    between atoms: _489  and  _490
REMARK  213  A    between atoms: _494  and  _496
REMARK  214  A    between atoms: _496  and  _497
REMARK  215  A    between atoms: _496  and  _499
REMARK  216  A    between atoms: _499  and  _500
REMARK  217  A    between atoms: _503  and  _505
REMARK  218  A    between atoms: _505  and  _506
REMARK  219  A    between atoms: _505  and  _508
REMARK  220  A    between atoms: _510  and  _512
REMARK  221  A    between atoms: _512  and  _513
REMARK  222  A    between atoms: _512  and  _515
REMARK  223  A    between atoms: _515  and  _516
REMARK  224  A    between atoms: _519  and  _521
REMARK  225  A    between atoms: _521  and  _522
REMARK  226  A    between atoms: _521  and  _524
REMARK  227  A    between atoms: _524  and  _525
REMARK  228  A    between atoms: _531  and  _533
REMARK  229  A    between atoms: _533  and  _534
REMARK  230  A    between atoms: _536  and  _538
REMARK  231  A    between atoms: _538  and  _539
REMARK  232  A    between atoms: _538  and  _541
REMARK  233  A    between atoms: _541  and  _542
REMARK                            x       y       z     vdW  Elec       q    Type
REMARK                         _______ _______ _______ _____ _____    ______ ____
ROOT
ATOM      1  CA  ILE A   1      35.774  43.792   3.297  0.00  0.00    +0.133 C 
ENDROOT
BRANCH   1   2
ATOM      2  N   ILE A   1      34.354  43.809   3.605  0.00  0.00    -0.239 NA
ATOM      3  H   ILE A   1      34.034  43.547   4.559  0.00  0.00    +0.142 HD
ENDBRANCH   1   2
BRANCH   1   4
ATOM      4  CB  ILE A   1      36.558  43.265   4.509  0.00  0.00    +0.023 C 
ATOM      5  CG2 ILE A   1      37.993  43.017   4.138  0.00  0.00    +0.002 C 
BRANCH   4   6
ATOM      6  CG1 ILE A   1      36.451  44.278   5.653  0.00  0.00    +0.002 C 
ATOM      7  CD1 ILE A   1      37.062  43.806   6.958  0.00  0.00    +0.000 C 
ENDBRANCH   4   6
ENDBRANCH   1   4
BRANCH   1   8
ATOM      8  C   ILE A   1      36.110  42.977   2.042  0.00  0.00    +0.224 C 
ATOM      9  O   ILE A   1      36.886  43.418   1.200  0.00  0.00    -0.287 OA
ENDBRANCH   1   8
TORSDOF 4
REMARK  Name = ../refined-set-2016/2qu6/2qu6_pocket.pdb
REMARK  233 active torsions:
REMARK  status: ('A' for Active; 'I' for Inactive)
REMARK    1  A    between atoms: _1  and  _3
REMARK    2  A    between atoms: _3  and  _4
REMARK    3  A    between atoms: _3  and  _6
REMARK    4  A    between atoms: _6  and  _7
REMARK    5  A    between atoms: _7  and  _8
REMARK    6  A    between atoms: _8  and  _9
REMARK    7  A    between atoms: _9  and  _10
REMARK    8  A    between atoms: _15  and  _16
REMARK    9  A    between atoms: _21  and  _23
REMARK   10  A    between atoms: _23  and  _24
REMARK   11  A    between atoms: _23  and  _26
REMARK   12  A    between atoms: _26  and  _27
REMARK   13  A    between atoms: _30  and  _32
REMARK   14  A    between atoms: _32  and  _33
REMARK   15  A    between atoms: _32  and  _35
REMARK   16  A    between atoms: _35  and  _36
REMARK   17  A    between atoms: _36  and  _37
REMARK   18  A    between atoms: _42  and  _44
REMARK   19  A    between atoms: _44  and  _45
REMARK   20  A    between atoms: _44  and  _47
REMARK   21  A    between atoms: _50  and  _52
REMARK   22  A    between atoms: _52  and  _53
REMARK   23  A    between atoms: _52  and  _55
REMARK   24  A    between atoms: _55  and  _56
REMARK   25  A    between atoms: _59  and  _61
REMARK   26  A    between atoms: _61  and  _62
REMARK   27  A    between atoms: _61  and  _64
REMARK   28  A    between atoms: _64  and  _65
REMARK   29  A    between atoms: _65  and  _66
REMARK   30  A    between atoms: _69  and  _71
REMARK   31  A    between atoms: _71  and  _72
REMARK   32  A    between atoms: _71  and  _74
REMARK   33  A    between atoms: _74  and  _75
REMARK   34  A    between atoms: _78  and  _80
REMARK   35  A    between atoms: _80  and  _81
REMARK   36  A    between atoms: _80  and  _83
REMARK   37  A    between atoms: _86  and  _88
REMARK   38  A    between atoms: _88  and  _89
REMARK   39  A    between atoms: _92  and  _94
REMARK   40  A    between atoms: _94  and  _95
REMARK   41  A    between atoms: _94  and  _97
REMARK   42  A    between atoms: _100  and  _102
REMARK   43  A    between atoms: _102  and  _103
REMARK   44  A    between atoms: _102  and  _105
REMARK   45  A    between atoms: _105  and  _106
REMARK   46  A    between atoms: _106  and  _107
REMARK   47  A    between atoms: _107  and  _108
REMARK   48  A    between atoms: _108  and  _109
REMARK   49  A    between atoms: _113  and  _115
REMARK   50  A    between atoms: _115  and  _116
REMARK   51  A    between atoms: _115  and  _118
REMARK   52  A    between atoms: _118  and  _119
REMARK   53  A    between atoms: _119  and  _120
REMARK   54  A    between atoms: _122  and  _124
REMARK   55  A    between atoms: _124  and  _125
REMARK   56  A    between atoms: _128  and  _130
REMARK   57  A    between atoms: _130  and  _131
REMARK   58  A    between atoms: _130  and  _133
REMARK   59  A    between atoms: _133  and  _134
REMARK   60  A    between atoms: _137  and  _139
REMARK   61  A    between atoms: _139  and  _140
REMARK   62  A    between atoms: _139  and  _142
REMARK   63  A    between atoms: _142  and  _143
REMARK   64  A    between atoms: _145  and  _147
REMARK   65  A    between atoms: _147  and  _148
REMARK   66  A    between atoms: _147  and  _150
REMARK   67  A    between atoms: _150  and  _151
REMARK   68  A    between atoms: _151  and  _152
REMARK   69  A    between atoms: _155  and  _157
REMARK   70  A    between atoms: _157  and  _158
REMARK   71  A    between atoms: _157  and  _160
REMARK   72  A    between atoms: _160  and  _161
REMARK   73  A    between atoms: _164  and  _166
REMARK   74  A    between atoms: _166  and  _167
REMARK   75  A    between atoms: _166  and  _169
REMARK   76  A    between atoms: _169  and  _170
REMARK   77  A    between atoms: _173  and  _175
REMARK   78  A    between atoms: _175  and  _176
REMARK   79  A    between atoms: _175  and  _178
REMARK   80  A    between atoms: _178  and  _179
REMARK   81  A    between atoms: _182  and  _184
REMARK   82  A    between atoms: _184  and  _185
REMARK   83  A    between atoms: _184  and  _187
REMARK   84  A    between atoms: _187  and  _188
REMARK   85  A    between atoms: _191  and  _193
REMARK   86  A    between atoms: _193  and  _194
REMARK   87  A    between atoms: _193  and  _196
REMARK   88  A    between atoms: _196  and  _197
REMARK   89  A    between atoms: _202  and  _204
REMARK   90  A    between atoms: _204  and  _205
REMARK   91  A    between atoms: _204  and  _207
REMARK   92  A    between atoms: _210  and  _212
REMARK   93  A    between atoms: _212  and  _213
REMARK   94  A    between atoms: _212  and  _215
REMARK   95  A    between atoms: _218  and  _220
REMARK   96  A    between atoms: _220  and  _221
REMARK   97  A    between atoms: _220  and  _223
REMARK   98  A    between atoms: _223  and  _224
REMARK   99  A    between atoms: _229  and  _231
REMARK  100  A    between atoms: _231  and  _232
REMARK  101  A    between atoms: _231  and  _234
REMARK  102  A    between atoms: _234  and  _235
REMARK  103  A    between atoms: _238  and  _240
REMARK  104  A    between atoms: _240  and  _241
REMARK  105  A    between atoms: _240  and  _243
REMARK  106  A    between atoms: _243  and  _244
REMARK  107  A    between atoms: _247  and  _249
REMARK  108  A    between atoms: _249  and  _250
REMARK  109  A    between atoms: _249  and  _252
REMARK  110  A    between atoms: _255  and  _257
REMARK  111  A    between atoms: _257  and  _258
REMARK  112  A    between atoms: _257  and  _260
REMARK  113  A    between atoms: _260  and  _261
REMARK  114  A    between atoms: _264  and  _266
REMARK  115  A    between atoms: _266  and  _267
REMARK  116  A    between atoms: _266  and  _269
REMARK  117  A    between atoms: _269  and  _270
REMARK  118  A    between atoms: _273  and  _275
REMARK  119  A    between atoms: _275  and  _276
REMARK  120  A    between atoms: _275  and  _278
REMARK  121  A    between atoms: _278  and  _279
REMARK  122  A    between atoms: _279  and  _280
REMARK  123  A    between atoms: _283  and  _285
REMARK  124  A    between atoms: _285  and  _286
REMARK  125  A    between atoms: _285  and  _288
REMARK  126  A    between atoms: _288  and  _289
REMARK  127  A    between atoms: _295  and  _297
REMARK  128  A    between atoms: _297  and  _298
REMARK  129  A    between atoms: _297  and  _300
REMARK  130  A    between atoms: _302  and  _304
REMARK  131  A    between atoms: _304  and  _305
REMARK  132  A    between atoms: _304  and  _307
REMARK  133  A    between atoms: _307  and  _308
REMARK  134  A    between atoms: _308  and  _309
REMARK  135  A    between atoms: _309  and  _310
REMARK  136  A    between atoms: _310  and  _311
REMARK  137  A    between atoms: _315  and  _317
REMARK  138  A    between atoms: _317  and  _318
REMARK  139  A    between atoms: _317  and  _320
REMARK  140  A    between atoms: _320  and  _321
REMARK  141  A    between atoms: _327  and  _329
REMARK  142  A    between atoms: _329  and  _330
REMARK  143  A    between atoms: _332  and  _334
REMARK  144  A    between atoms: _334  and  _335
REMARK  145  A    between atoms: _334  and  _337
REMARK  146  A    between atoms: _337  and  _338
REMARK  147  A    between atoms: _343  and  _345
REMARK  148  A    between atoms: _345  and  _346
REMARK  149  A    between atoms: _348  and  _350
REMARK  150  A    between atoms: _350  and  _351
REMARK  151  A    between atoms: _350  and  _353
REMARK  152  A    between atoms: _353  and  _354
REMARK  153  A    between atoms: _354  and  _355
REMARK  154  A    between atoms: _357  and  _359
REMARK  155  A    between atoms: _359  and  _360
REMARK  156  A    between atoms: _359  and  _362
REMARK  157  A    between atoms: _362  and  _363
REMARK  158  A    between atoms: _369  and  _371
REMARK  159  A    between atoms: _371  and  _372
REMARK  160  A    between atoms: _371  and  _374
REMARK  161  A    between atoms: _374  and  _375
REMARK  162  A    between atoms: _378  and  _380
REMARK  163  A    between atoms: _380  and  _381
REMARK  164  A    between atoms: _380  and  _383
REMARK  165  A    between atoms: _383  and  _384
REMARK  166  A    between atoms: _384  and  _385
REMARK  167  A    between atoms: _385  and  _386
REMARK  168  A    between atoms: _386  and  _387
REMARK  169  A    between atoms: _391  and  _393
REMARK  170  A    between atoms: _393  and  _394
REMARK  171  A    between atoms: _393  and  _396
REMARK  172  A    between atoms: _398  and  _400
REMARK  173  A    between atoms: _400  and  _401
REMARK  174  A    between atoms: _400  and  _403
REMARK  175  A    between atoms: _403  and  _404
REMARK  176  A    between atoms: _407  and  _409
REMARK  177  A    between atoms: _409  and  _410
REMARK  178  A    between atoms: _409  and  _412
REMARK  179  A    between atoms: _412  and  _413
REMARK  180  A    between atoms: _418  and  _420
REMARK  181  A    between atoms: _420  and  _421
REMARK  182  A    between atoms: _420  and  _423
REMARK  183  A    between atoms: _423  and  _424
REMARK  184  A    between atoms: _424  and  _425
REMARK  185  A    between atoms: _425  and  _426
REMARK  186  A    between atoms: _435  and  _437
REMARK  187  A    between atoms: _437  and  _438
REMARK  188  A    between atoms: _437  and  _440
REMARK  189  A    between atoms: _440  and  _441
REMARK  190  A    between atoms: _444  and  _446
REMARK  191  A    between atoms: _446  and  _447
REMARK  192  A    between atoms: _446  and  _449
REMARK  193  A    between atoms: _449  and  _450
REMARK  194  A    between atoms: _455  and  _457
REMARK  195  A    between atoms: _457  and  _458
REMARK  196  A    between atoms: _457  and  _460
REMARK  197  A    between atoms: _460  and  _461
REMARK  198  A    between atoms: _464  and  _466
REMARK  199  A    between atoms: _466  and  _467
REMARK  200  A    between atoms: _466  and  _469
REMARK  201  A    between atoms: _469  and  _470
REMARK  202  A    between atoms: _473  and  _475
REMARK  203  A    between atoms: _475  and  _476
REMARK  204  A    between atoms: _475  and  _478
REMARK  205  A    between atoms: _478  and  _479
REMARK  206  A    between atoms: _481  and  _483
REMARK  207  A    between atoms: _483  and  _484
REMARK  208  A    between atoms: _483  and  _486
REMARK  209  A    between atoms: _486  and  _487
REMARK  210  A    between atoms: _487  and  _488
REMARK  211  A    between atoms: _488  and  _489
REMARK  212  A    between atoms: _489  and  _490
REMARK  213  A    between atoms: _494  and  _496
REMARK  214  A    between atoms: _496  and  _497
REMARK  215  A    between atoms: _496  and  _499
REMARK  216  A    between atoms: _499  and  _500
REMARK  217  A    between atoms: _503  and  _505
REMARK  218  A    between atoms: _505  and  _506
REMARK  219  A    between atoms: _505  and  _508
REMARK  220  A    between atoms: _510  and  _512
REMARK  221  A    between atoms: _512  and  _513
REMARK  222  A    between atoms: _512  and  _515
REMARK  223  A    between atoms: _515  and  _516
REMARK  224  A    between atoms: _519  and  _521
REMARK  225  A    between atoms: _521  and  _522
REMARK  226  A    between atoms: _521  and  _524
REMARK  227  A    between atoms: _524  and  _525
REMARK  228  A    between atoms: _531  and  _533
REMARK  229  A    between atoms: _533  and  _534
REMARK  230  A    between atoms: _536  and  _538
REMARK  231  A    between atoms: _538  and  _539
REMARK  232  A    between atoms: _538  and  _541
REMARK  233  A    between atoms: _541  and  _542
REMARK                            x       y       z     vdW  Elec       q    Type
REMARK                         _______ _______ _______ _____ _____    ______ ____
ROOT
ATOM      1  C   VAL A   3      39.415  34.134   6.243  0.00  0.00    +0.241 C 
ATOM      2  O   VAL A   3      38.735  35.141   6.428  0.00  0.00    -0.273 OA
ATOM      3  N   ASN A   4      39.106  33.210   5.334  0.00  0.00    -0.297 N 
ATOM      4  H   ASN A   4      39.705  32.363   5.257  0.00  0.00    +0.150 HD
ENDROOT
BRANCH   3   5
ATOM      5  CA  ASN A   4      37.951  33.344   4.437  0.00  0.00    +0.158 C 
BRANCH   5   6
ATOM      6  C   ASN A   4      36.580  33.029   5.047  0.00  0.00    +0.241 C 
ATOM      7  O   ASN A   4      36.388  31.992   5.687  0.00  0.00    -0.273 OA
ATOM      8  N   LEU A   5      35.625  33.925   4.820  0.00  0.00    -0.297 N 
ATOM      9  H   LEU A   5      35.853  34.784   4.280  0.00  0.00    +0.150 HD
BRANCH   8  10
ATOM     10  CA  LEU A   5      34.264  33.732   5.310  0.00  0.00    +0.149 C 
BRANCH  10  11
ATOM     11  C   LEU A   5      33.591  32.773   4.321  0.00  0.00    +0.241 C 
ATOM     12  N   LEU A   6      32.862  31.772   4.806  0.00  0.00    -0.298 N 
ATOM     13  H   LEU A   6      32.754  31.665   5.835  0.00  0.00    +0.150 HD
ATOM     14  O   LEU A   5      33.746  32.937   3.121  0.00  0.00    -0.273 OA
BRANCH  12  15
ATOM     15  CA  LEU A   6      32.208  30.815   3.903  0.00  0.00    +0.137 C 
BRANCH  15  16
ATOM     16  C   LEU A   6      30.678  30.896   3.945  0.00  0.00    +0.227 C 
ATOM     17  O   LEU A   6      30.006  30.565   2.971  0.00  0.00    -0.286 OA
ENDBRANCH  15  16
BRANCH  15  18
ATOM     18  CB  LEU A   6      32.642  29.385   4.237  0.00  0.00    +0.028 C 
BRANCH  18  19
ATOM     19  CG  LEU A   6      34.146  29.100   4.215  0.00  0.00    +0.002 C 
ATOM     20  CD2 LEU A   6      34.426  27.649   4.622  0.00  0.00    +0.000 C 
ATOM     21  CD1 LEU A   6      34.672  29.382   2.827  0.00  0.00    +0.000 C 
ENDBRANCH  18  19
ENDBRANCH  15  18
ENDBRANCH  12  15
ENDBRANCH  10  11
BRANCH  10  22
ATOM     22  CB  LEU A   5      33.537  35.073   5.325  0.00  0.00    +0.029 C 
BRANCH  22  23
ATOM     23  CG  LEU A   5      32.038  35.004   5.611  0.00  0.00    +0.002 C 
ATOM     24  CD2 LEU A   5      31.809  34.585   7.054  0.00  0.00    +0.000 C 
ATOM     25  CD1 LEU A   5      31.408  36.348   5.322  0.00  0.00    +0.000 C 
ENDBRANCH  22  23
ENDBRANCH  10  22
ENDBRANCH   8  10
ENDBRANCH   5   6
BRANCH   5  26
ATOM     26  CB  ASN A   4      38.124  32.450   3.197  0.00  0.00    +0.114 C 
BRANCH  26  27
ATOM     27  CG  ASN A   4      39.386  32.762   2.405  0.00  0.00    +0.222 C 
ATOM     28  ND2 ASN A   4      40.226  33.653   2.932  0.00  0.00    -0.329 N 
ATOM     29 HD21 ASN A   4      40.002  34.105   3.841  0.00  0.00    +0.145 HD
ATOM     30 HD22 ASN A   4      41.106  33.896   2.434  0.00  0.00    +0.145 HD
ATOM     31  OD1 ASN A   4      39.606  32.198   1.329  0.00  0.00    -0.275 OA
ENDBRANCH  26  27
ENDBRANCH   5  26
ENDBRANCH   3   5
BRANCH   1  32
ATOM     32  CA  VAL A   3      40.690  33.890   7.067  0.00  0.00    +0.149 C 
BRANCH  32  34
ATOM     33  C   VAL A   2      41.701  35.656   5.797  0.00  0.00    +0.241 C 
ATOM     34  N   VAL A   3      41.506  35.091   6.978  0.00  0.00    -0.297 N 
ATOM     35  H   VAL A   3      41.932  35.501   7.833  0.00  0.00    +0.150 HD
ATOM     36  O   VAL A   2      41.225  35.187   4.767  0.00  0.00    -0.273 OA
BRANCH  33  37
ATOM     37  CA  VAL A   2      42.583  36.900   5.755  0.00  0.00    +0.148 C 
BRANCH  37  40
ATOM     38  C   ASN A   1      44.896  36.751   5.007  0.00  0.00    +0.239 C 
ATOM     39  O   ASN A   1      45.344  37.205   6.069  0.00  0.00    -0.274 OA
ATOM     40  N   VAL A   2      43.599  36.589   4.768  0.00  0.00    -0.297 N 
ATOM     41  H   VAL A   2      43.302  36.226   3.840  0.00  0.00    +0.150 HD
BRANCH  38  42
ATOM     42  CA  ASN A   1      45.818  36.315   3.879  0.00  0.00    +0.154 C 
BRANCH  42  43
ATOM     43  N   ASN A   1      45.244  36.228   2.548  0.00  0.00    -0.238 NA
ATOM     44  H   ASN A   1      45.112  37.094   1.988  0.00  0.00    +0.142 HD
ENDBRANCH  42  43
BRANCH  42  45
ATOM     45  CB  ASN A   1      47.067  37.187   3.791  0.00  0.00    +0.111 C 
BRANCH  45  46
ATOM     46  CG  ASN A   1      48.094  36.591   2.857  0.00  0.00    +0.221 C 
ATOM     47  ND2 ASN A   1      48.405  35.327   3.070  0.00  0.00    -0.329 N 
ATOM     48 HD21 ASN A   1      47.961  34.807   3.854  0.00  0.00    +0.145 HD
ATOM     49 HD22 ASN A   1      49.094  34.850   2.454  0.00  0.00    +0.145 HD
ATOM     50  OD1 ASN A   1      48.588  37.243   1.951  0.00  0.00    -0.275 OA
ENDBRANCH  45  46
ENDBRANCH  42  45
ENDBRANCH  38  42
ENDBRANCH  37  40
BRANCH  37  51
ATOM     51  CB  VAL A   2      41.741  38.126   5.347  0.00  0.00    +0.027 C 
ATOM     52  CG2 VAL A   2      40.730  38.439   6.443  0.00  0.00    +0.002 C 
ATOM     53  CG1 VAL A   2      42.651  39.342   5.102  0.00  0.00    +0.002 C 
ENDBRANCH  37  51
ENDBRANCH  33  37
ENDBRANCH  32  34
BRANCH  32  54
ATOM     54  CB  VAL A   3      40.347  33.589   8.516  0.00  0.00    +0.027 C 
ATOM     55  CG2 VAL A   3      39.261  34.533   8.986  0.00  0.00    +0.002 C 
ATOM     56  CG1 VAL A   3      39.940  32.132   8.657  0.00  0.00    +0.002 C 
ENDBRANCH  32  54
ENDBRANCH   1  32
TORSDOF 22
REMARK  Name = ../refined-set-2016/2qu6/2qu6_pocket.pdb
REMARK  233 active torsions:
REMARK  status: ('A' for Active; 'I' for Inactive)
REMARK    1  A    between atoms: _1  and  _3
REMARK    2  A    between atoms: _3  and  _4
REMARK    3  A    between atoms: _3  and  _6
REMARK    4  A    between atoms: _6  and  _7
REMARK    5  A    between atoms: _7  and  _8
REMARK    6  A    between atoms: _8  and  _9
REMARK    7  A    between atoms: _9  and  _10
REMARK    8  A    between atoms: _15  and  _16
REMARK    9  A    between atoms: _21  and  _23
REMARK   10  A    between atoms: _23  and  _24
REMARK   11  A    between atoms: _23  and  _26
REMARK   12  A    between atoms: _26  and  _27
REMARK   13  A    between atoms: _30  and  _32
REMARK   14  A    between atoms: _32  and  _33
REMARK   15  A    between atoms: _32  and  _35
REMARK   16  A    between atoms: _35  and  _36
REMARK   17  A    between atoms: _36  and  _37
REMARK   18  A    between atoms: _42  and  _44
REMARK   19  A    between atoms: _44  and  _45
REMARK   20  A    between atoms: _44  and  _47
REMARK   21  A    between atoms: _50  and  _52
REMARK   22  A    between atoms: _52  and  _53
REMARK   23  A    between atoms: _52  and  _55
REMARK   24  A    between atoms: _55  and  _56
REMARK   25  A    between atoms: _59  and  _61
REMARK   26  A    between atoms: _61  and  _62
REMARK   27  A    between atoms: _61  and  _64
REMARK   28  A    between atoms: _64  and  _65
REMARK   29  A    between atoms: _65  and  _66
REMARK   30  A    between atoms: _69  and  _71
REMARK   31  A    between atoms: _71  and  _72
REMARK   32  A    between atoms: _71  and  _74
REMARK   33  A    between atoms: _74  and  _75
REMARK   34  A    between atoms: _78  and  _80
REMARK   35  A    between atoms: _80  and  _81
REMARK   36  A    between atoms: _80  and  _83
REMARK   37  A    between atoms: _86  and  _88
REMARK   38  A    between atoms: _88  and  _89
REMARK   39  A    between atoms: _92  and  _94
REMARK   40  A    between atoms: _94  and  _95
REMARK   41  A    between atoms: _94  and  _97
REMARK   42  A    between atoms: _100  and  _102
REMARK   43  A    between atoms: _102  and  _103
REMARK   44  A    between atoms: _102  and  _105
REMARK   45  A    between atoms: _105  and  _106
REMARK   46  A    between atoms: _106  and  _107
REMARK   47  A    between atoms: _107  and  _108
REMARK   48  A    between atoms: _108  and  _109
REMARK   49  A    between atoms: _113  and  _115
REMARK   50  A    between atoms: _115  and  _116
REMARK   51  A    between atoms: _115  and  _118
REMARK   52  A    between atoms: _118  and  _119
REMARK   53  A    between atoms: _119  and  _120
REMARK   54  A    between atoms: _122  and  _124
REMARK   55  A    between atoms: _124  and  _125
REMARK   56  A    between atoms: _128  and  _130
REMARK   57  A    between atoms: _130  and  _131
REMARK   58  A    between atoms: _130  and  _133
REMARK   59  A    between atoms: _133  and  _134
REMARK   60  A    between atoms: _137  and  _139
REMARK   61  A    between atoms: _139  and  _140
REMARK   62  A    between atoms: _139  and  _142
REMARK   63  A    between atoms: _142  and  _143
REMARK   64  A    between atoms: _145  and  _147
REMARK   65  A    between atoms: _147  and  _148
REMARK   66  A    between atoms: _147  and  _150
REMARK   67  A    between atoms: _150  and  _151
REMARK   68  A    between atoms: _151  and  _152
REMARK   69  A    between atoms: _155  and  _157
REMARK   70  A    between atoms: _157  and  _158
REMARK   71  A    between atoms: _157  and  _160
REMARK   72  A    between atoms: _160  and  _161
REMARK   73  A    between atoms: _164  and  _166
REMARK   74  A    between atoms: _166  and  _167
REMARK   75  A    between atoms: _166  and  _169
REMARK   76  A    between atoms: _169  and  _170
REMARK   77  A    between atoms: _173  and  _175
REMARK   78  A    between atoms: _175  and  _176
REMARK   79  A    between atoms: _175  and  _178
REMARK   80  A    between atoms: _178  and  _179
REMARK   81  A    between atoms: _182  and  _184
REMARK   82  A    between atoms: _184  and  _185
REMARK   83  A    between atoms: _184  and  _187
REMARK   84  A    between atoms: _187  and  _188
REMARK   85  A    between atoms: _191  and  _193
REMARK   86  A    between atoms: _193  and  _194
REMARK   87  A    between atoms: _193  and  _196
REMARK   88  A    between atoms: _196  and  _197
REMARK   89  A    between atoms: _202  and  _204
REMARK   90  A    between atoms: _204  and  _205
REMARK   91  A    between atoms: _204  and  _207
REMARK   92  A    between atoms: _210  and  _212
REMARK   93  A    between atoms: _212  and  _213
REMARK   94  A    between atoms: _212  and  _215
REMARK   95  A    between atoms: _218  and  _220
REMARK   96  A    between atoms: _220  and  _221
REMARK   97  A    between atoms: _220  and  _223
REMARK   98  A    between atoms: _223  and  _224
REMARK   99  A    between atoms: _229  and  _231
REMARK  100  A    between atoms: _231  and  _232
REMARK  101  A    between atoms: _231  and  _234
REMARK  102  A    between atoms: _234  and  _235
REMARK  103  A    between atoms: _238  and  _240
REMARK  104  A    between atoms: _240  and  _241
REMARK  105  A    between atoms: _240  and  _243
REMARK  106  A    between atoms: _243  and  _244
REMARK  107  A    between atoms: _247  and  _249
REMARK  108  A    between atoms: _249  and  _250
REMARK  109  A    between atoms: _249  and  _252
REMARK  110  A    between atoms: _255  and  _257
REMARK  111  A    between atoms: _257  and  _258
REMARK  112  A    between atoms: _257  and  _260
REMARK  113  A    between atoms: _260  and  _261
REMARK  114  A    between atoms: _264  and  _266
REMARK  115  A    between atoms: _266  and  _267
REMARK  116  A    between atoms: _266  and  _269
REMARK  117  A    between atoms: _269  and  _270
REMARK  118  A    between atoms: _273  and  _275
REMARK  119  A    between atoms: _275  and  _276
REMARK  120  A    between atoms: _275  and  _278
REMARK  121  A    between atoms: _278  and  _279
REMARK  122  A    between atoms: _279  and  _280
REMARK  123  A    between atoms: _283  and  _285
REMARK  124  A    between atoms: _285  and  _286
REMARK  125  A    between atoms: _285  and  _288
REMARK  126  A    between atoms: _288  and  _289
REMARK  127  A    between atoms: _295  and  _297
REMARK  128  A    between atoms: _297  and  _298
REMARK  129  A    between atoms: _297  and  _300
REMARK  130  A    between atoms: _302  and  _304
REMARK  131  A    between atoms: _304  and  _305
REMARK  132  A    between atoms: _304  and  _307
REMARK  133  A    between atoms: _307  and  _308
REMARK  134  A    between atoms: _308  and  _309
REMARK  135  A    between atoms: _309  and  _310
REMARK  136  A    between atoms: _310  and  _311
REMARK  137  A    between atoms: _315  and  _317
REMARK  138  A    between atoms: _317  and  _318
REMARK  139  A    between atoms: _317  and  _320
REMARK  140  A    between atoms: _320  and  _321
REMARK  141  A    between atoms: _327  and  _329
REMARK  142  A    between atoms: _329  and  _330
REMARK  143  A    between atoms: _332  and  _334
REMARK  144  A    between atoms: _334  and  _335
REMARK  145  A    between atoms: _334  and  _337
REMARK  146  A    between atoms: _337  and  _338
REMARK  147  A    between atoms: _343  and  _345
REMARK  148  A    between atoms: _345  and  _346
REMARK  149  A    between atoms: _348  and  _350
REMARK  150  A    between atoms: _350  and  _351
REMARK  151  A    between atoms: _350  and  _353
REMARK  152  A    between atoms: _353  and  _354
REMARK  153  A    between atoms: _354  and  _355
REMARK  154  A    between atoms: _357  and  _359
REMARK  155  A    between atoms: _359  and  _360
REMARK  156  A    between atoms: _359  and  _362
REMARK  157  A    between atoms: _362  and  _363
REMARK  158  A    between atoms: _369  and  _371
REMARK  159  A    between atoms: _371  and  _372
REMARK  160  A    between atoms: _371  and  _374
REMARK  161  A    between atoms: _374  and  _375
REMARK  162  A    between atoms: _378  and  _380
REMARK  163  A    between atoms: _380  and  _381
REMARK  164  A    between atoms: _380  and  _383
REMARK  165  A    between atoms: _383  and  _384
REMARK  166  A    between atoms: _384  and  _385
REMARK  167  A    between atoms: _385  and  _386
REMARK  168  A    between atoms: _386  and  _387
REMARK  169  A    between atoms: _391  and  _393
REMARK  170  A    between atoms: _393  and  _394
REMARK  171  A    between atoms: _393  and  _396
REMARK  172  A    between atoms: _398  and  _400
REMARK  173  A    between atoms: _400  and  _401
REMARK  174  A    between atoms: _400  and  _403
REMARK  175  A    between atoms: _403  and  _404
REMARK  176  A    between atoms: _407  and  _409
REMARK  177  A    between atoms: _409  and  _410
REMARK  178  A    between atoms: _409  and  _412
REMARK  179  A    between atoms: _412  and  _413
REMARK  180  A    between atoms: _418  and  _420
REMARK  181  A    between atoms: _420  and  _421
REMARK  182  A    between atoms: _420  and  _423
REMARK  183  A    between atoms: _423  and  _424
REMARK  184  A    between atoms: _424  and  _425
REMARK  185  A    between atoms: _425  and  _426
REMARK  186  A    between atoms: _435  and  _437
REMARK  187  A    between atoms: _437  and  _438
REMARK  188  A    between atoms: _437  and  _440
REMARK  189  A    between atoms: _440  and  _441
REMARK  190  A    between atoms: _444  and  _446
REMARK  191  A    between atoms: _446  and  _447
REMARK  192  A    between atoms: _446  and  _449
REMARK  193  A    between atoms: _449  and  _450
REMARK  194  A    between atoms: _455  and  _457
REMARK  195  A    between atoms: _457  and  _458
REMARK  196  A    between atoms: _457  and  _460
REMARK  197  A    between atoms: _460  and  _461
REMARK  198  A    between atoms: _464  and  _466
REMARK  199  A    between atoms: _466  and  _467
REMARK  200  A    between atoms: _466  and  _469
REMARK  201  A    between atoms: _469  and  _470
REMARK  202  A    between atoms: _473  and  _475
REMARK  203  A    between atoms: _475  and  _476
REMARK  204  A    between atoms: _475  and  _478
REMARK  205  A    between atoms: _478  and  _479
REMARK  206  A    between atoms: _481  and  _483
REMARK  207  A    between atoms: _483  and  _484
REMARK  208  A    between atoms: _483  and  _486
REMARK  209  A    between atoms: _486  and  _487
REMARK  210  A    between atoms: _487  and  _488
REMARK  211  A    between atoms: _488  and  _489
REMARK  212  A    between atoms: _489  and  _490
REMARK  213  A    between atoms: _494  and  _496
REMARK  214  A    between atoms: _496  and  _497
REMARK  215  A    between atoms: _496  and  _499
REMARK  216  A    between atoms: _499  and  _500
REMARK  217  A    between atoms: _503  and  _505
REMARK  218  A    between atoms: _505  and  _506
REMARK  219  A    between atoms: _505  and  _508
REMARK  220  A    between atoms: _510  and  _512
REMARK  221  A    between atoms: _512  and  _513
REMARK  222  A    between atoms: _512  and  _515
REMARK  223  A    between atoms: _515  and  _516
REMARK  224  A    between atoms: _519  and  _521
REMARK  225  A    between atoms: _521  and  _522
REMARK  226  A    between atoms: _521  and  _524
REMARK  227  A    between atoms: _524  and  _525
REMARK  228  A    between atoms: _531  and  _533
REMARK  229  A    between atoms: _533  and  _534
REMARK  230  A    between atoms: _536  and  _538
REMARK  231  A    between atoms: _538  and  _539
REMARK  232  A    between atoms: _538  and  _541
REMARK  233  A    between atoms: _541  and  _542
REMARK                            x       y       z     vdW  Elec       q    Type
REMARK                         _______ _______ _______ _____ _____    ______ ____
ROOT
ATOM      1  C   PHE A   5      40.944  25.772   8.310  0.00  0.00    +0.241 C 
ATOM      2  N   CYS A   6      41.798  26.272   9.197  0.00  0.00    -0.296 N 
ATOM      3  H   CYS A   6      41.430  26.669  10.085  0.00  0.00    +0.150 HD
ATOM      4  O   PHE A   5      41.306  25.296   7.238  0.00  0.00    -0.273 OA
ENDROOT
BRANCH   2   5
ATOM      5  CA  CYS A   6      43.243  26.279   8.958  0.00  0.00    +0.160 C 
BRANCH   5   6
ATOM      6  C   CYS A   6      43.824  25.208   9.884  0.00  0.00    +0.242 C 
ATOM      7  O   CYS A   6      43.980  25.434  11.077  0.00  0.00    -0.273 OA
ATOM      8  N   LYS A   7      44.167  24.055   9.317  0.00  0.00    -0.297 N 
ATOM      9  H   LYS A   7      44.102  23.963   8.283  0.00  0.00    +0.150 HD
BRANCH   8  10
ATOM     10  CA  LYS A   7      44.633  22.910  10.103  0.00  0.00    +0.149 C 
BRANCH  10  11
ATOM     11  C   LYS A   7      45.808  23.008  11.060  0.00  0.00    +0.241 C 
ATOM     12  O   LYS A   7      45.812  22.315  12.076  0.00  0.00    -0.273 OA
ATOM     13  N   PHE A   8      46.802  23.843  10.772  0.00  0.00    -0.297 N 
ATOM     14  H   PHE A   8      46.773  24.419   9.906  0.00  0.00    +0.150 HD
BRANCH  13  15
ATOM     15  CA  PHE A   8      47.933  23.940  11.686  0.00  0.00    +0.153 C 
BRANCH  15  16
ATOM     16  C   PHE A   8      47.694  24.854  12.892  0.00  0.00    +0.241 C 
ATOM     17  O   PHE A   8      48.443  24.806  13.864  0.00  0.00    -0.273 OA
ATOM     18  N   GLY A   9      46.645  25.670  12.850  0.00  0.00    -0.295 N 
ATOM     19  H   GLY A   9      46.042  25.696  12.003  0.00  0.00    +0.150 HD
BRANCH  18  20
ATOM     20  CA  GLY A   9      46.337  26.529  13.987  0.00  0.00    +0.176 C 
BRANCH  20  21
ATOM     21  C   GLY A   9      47.112  27.829  14.151  0.00  0.00    +0.243 C 
ATOM     22  N   ASN A  10      47.101  28.399  15.356  0.00  0.00    -0.298 N 
ATOM     23  H   ASN A  10      46.605  27.930  16.141  0.00  0.00    +0.150 HD
ATOM     24  O   GLY A   9      47.734  28.305  13.211  0.00  0.00    -0.273 OA
BRANCH  22  25
ATOM     25  CA  ASN A  10      47.774  29.669  15.589  0.00  0.00    +0.146 C 
BRANCH  25  26
ATOM     26  C   ASN A  10      49.295  29.619  15.466  0.00  0.00    +0.227 C 
ATOM     27  O   ASN A  10      49.959  28.718  15.993  0.00  0.00    -0.286 OA
ENDBRANCH  25  26
BRANCH  25  28
ATOM     28  CB  ASN A  10      47.341  30.251  16.934  0.00  0.00    +0.112 C 
BRANCH  28  29
ATOM     29  CG  ASN A  10      48.168  29.754  18.082  0.00  0.00    +0.222 C 
ATOM     30  ND2 ASN A  10      47.681  28.719  18.750  0.00  0.00    -0.329 N 
ATOM     31 HD21 ASN A  10      48.207  28.326  19.557  0.00  0.00    +0.145 HD
ATOM     32 HD22 ASN A  10      46.772  28.299  18.468  0.00  0.00    +0.145 HD
ATOM     33  OD1 ASN A  10      49.240  30.292  18.372  0.00  0.00    -0.275 OA
ENDBRANCH  28  29
ENDBRANCH  25  28
ENDBRANCH  22  25
ENDBRANCH  20  21
ENDBRANCH  18  20
ENDBRANCH  15  16
BRANCH  15  34
ATOM     34  CB  PHE A   8      49.198  24.332  10.915  0.00  0.00    +0.055 C 
BRANCH  34  35
ATOM     35  CG  PHE A   8      49.583  23.327   9.860  0.00  0.00    -0.020 A 
ATOM     36  CD2 PHE A   8      50.230  22.150  10.214  0.00  0.00    -0.004 A 
ATOM     37  CE2 PHE A   8      50.482  21.160   9.271  0.00  0.00    -0.000 A 
ATOM     38  CZ  PHE A   8      50.091  21.341   7.959  0.00  0.00    -0.000 A 
ATOM     39  CE1 PHE A   8      49.450  22.515   7.588  0.00  0.00    -0.000 A 
ATOM     40  CD1 PHE A   8      49.201  23.500   8.538  0.00  0.00    -0.004 A 
ENDBRANCH  34  35
ENDBRANCH  15  34
ENDBRANCH  13  15
ENDBRANCH  10  11
BRANCH  10  41
ATOM     41  CB  LYS A   7      44.847  21.705   9.189  0.00  0.00    +0.029 C 
BRANCH  41  42
ATOM     42  CG  LYS A   7      45.842  21.927   8.092  0.00  0.00    +0.000 C 
BRANCH  42  43
ATOM     43  CD  LYS A   7      45.966  20.690   7.223  0.00  0.00    -0.024 C 
BRANCH  43  44
ATOM     44  CE  LYS A   7      46.437  19.490   8.022  0.00  0.00    -0.086 C 
BRANCH  44  45
ATOM     45  NZ  LYS A   7      46.602  18.313   7.114  0.00  0.00    +0.380 N 
ATOM     46  HZ1 LYS A   7      46.925  17.493   7.666  0.00  0.00    -0.089 HD
ATOM     47  HZ2 LYS A   7      45.690  18.093   6.665  0.00  0.00    -0.089 HD
ATOM     48  HZ3 LYS A   7      47.305  18.538   6.381  0.00  0.00    -0.089 HD
ENDBRANCH  44  45
ENDBRANCH  43  44
ENDBRANCH  42  43
ENDBRANCH  41  42
ENDBRANCH  10  41
ENDBRANCH   8  10
ENDBRANCH   5   6
BRANCH   5  49
ATOM     49  CB  CYS A   6      43.811  27.664   9.290  0.00  0.00    +0.098 C 
ATOM     50  SG  CYS A   6      43.062  29.026   8.335  0.00  0.00    -0.080 S 
ENDBRANCH   5  49
ENDBRANCH   2   5
BRANCH   1  51
ATOM     51  CA  PHE A   5      39.452  25.813   8.669  0.00  0.00    +0.153 C 
BRANCH  51  54
ATOM     52  C   GLU A   4      38.288  27.691   7.673  0.00  0.00    +0.241 C 
ATOM     53  O   GLU A   4      38.380  28.348   8.705  0.00  0.00    -0.273 OA
ATOM     54  N   PHE A   5      38.746  26.455   7.568  0.00  0.00    -0.297 N 
ATOM     55  H   PHE A   5      38.599  25.931   6.682  0.00  0.00    +0.150 HD
BRANCH  52  56
ATOM     56  CA  GLU A   4      37.591  28.261   6.445  0.00  0.00    +0.149 C 
BRANCH  56  59
ATOM     57  C   THR A   3      35.738  29.180   7.641  0.00  0.00    +0.243 C 
ATOM     58  O   THR A   3      35.390  28.052   7.977  0.00  0.00    -0.273 OA
ATOM     59  N   GLU A   4      36.795  29.393   6.870  0.00  0.00    -0.297 N 
ATOM     60  H   GLU A   4      37.048  30.358   6.575  0.00  0.00    +0.150 HD
BRANCH  57  61
ATOM     61  CA  THR A   3      34.960  30.407   8.087  0.00  0.00    +0.176 C 
BRANCH  61  63
ATOM     62  C   ILE A   2      32.565  30.515   8.503  0.00  0.00    +0.241 C 
ATOM     63  N   THR A   3      33.762  30.046   8.842  0.00  0.00    -0.295 N 
ATOM     64  H   THR A   3      33.847  29.410   9.660  0.00  0.00    +0.150 HD
ATOM     65  O   ILE A   2      32.388  31.251   7.531  0.00  0.00    -0.273 OA
BRANCH  62  66
ATOM     66  CA  ILE A   2      31.386  30.075   9.366  0.00  0.00    +0.148 C 
BRANCH  66  69
ATOM     67  C   VAL A   1      30.560  31.600  11.090  0.00  0.00    +0.238 C 
ATOM     68  O   VAL A   1      31.344  31.161  11.924  0.00  0.00    -0.274 OA
ATOM     69  N   ILE A   2      30.531  31.169   9.833  0.00  0.00    -0.297 N 
ATOM     70  H   ILE A   2      29.881  31.623   9.160  0.00  0.00    +0.150 HD
BRANCH  67  71
ATOM     71  CA  VAL A   1      29.560  32.694  11.462  0.00  0.00    +0.145 C 
BRANCH  71  72
ATOM     72  CB  VAL A   1      30.314  33.975  11.914  0.00  0.00    +0.025 C 
ATOM     73  CG2 VAL A   1      29.310  35.054  12.278  0.00  0.00    +0.002 C 
ATOM     74  CG1 VAL A   1      31.235  34.467  10.810  0.00  0.00    +0.002 C 
ENDBRANCH  71  72
BRANCH  71  75
ATOM     75  N   VAL A   1      28.718  32.163  12.539  0.00  0.00    -0.238 NA
ATOM     76  H   VAL A   1      29.137  32.021  13.480  0.00  0.00    +0.142 HD
ENDBRANCH  71  75
ENDBRANCH  67  71
ENDBRANCH  66  69
BRANCH  66  77
ATOM     77  CB  ILE A   2      30.548  29.074   8.552  0.00  0.00    +0.027 C 
ATOM     78  CG2 ILE A   2      31.355  27.831   8.258  0.00  0.00    +0.002 C 
BRANCH  77  79
ATOM     79  CG1 ILE A   2      29.275  28.720   9.318  0.00  0.00    +0.002 C 
ATOM     80  CD1 ILE A   2      28.238  28.005   8.475  0.00  0.00    +0.000 C 
ENDBRANCH  77  79
ENDBRANCH  66  77
ENDBRANCH  62  66
ENDBRANCH  61  63
BRANCH  61  81
ATOM     81  CB  THR A   3      35.914  31.281   8.930  0.00  0.00    +0.137 C 
ATOM     82  CG2 THR A   3      35.129  32.396   9.645  0.00  0.00    +0.034 C 
BRANCH  81  83
ATOM     83  OG1 THR A   3      36.573  30.467   9.912  0.00  0.00    -0.382 OA
ATOM     84  HG1 THR A   3      37.092  29.758   9.456  0.00  0.00    +0.210 HD
ENDBRANCH  81  83
ENDBRANCH  61  81
ENDBRANCH  57  61
ENDBRANCH  56  59
BRANCH  56  85
ATOM     85  CB  GLU A   4      38.623  28.683   5.396  0.00  0.00    +0.041 C 
BRANCH  85  86
ATOM     86  CG  GLU A   4      39.538  29.814   5.800  0.00  0.00    +0.116 C 
BRANCH  86  87
ATOM     87  CD  GLU A   4      40.574  30.103   4.720  0.00  0.00    +0.365 C 
ATOM     88  OE2 GLU A   4      40.827  31.285   4.392  0.00  0.00    -0.246 OA
ATOM     89  OE1 GLU A   4      41.140  29.127   4.198  0.00  0.00    -0.246 OA
ENDBRANCH  86  87
ENDBRANCH  85  86
ENDBRANCH  56  85
ENDBRANCH  52  56
ENDBRANCH  51  54
BRANCH  51  90
ATOM     90  CB  PHE A   5      38.935  24.386   8.863  0.00  0.00    +0.055 C 
BRANCH  90  91
ATOM     91  CG  PHE A   5      39.608  23.647   9.988  0.00  0.00    -0.020 A 
ATOM     92  CD2 PHE A   5      39.340  23.977  11.311  0.00  0.00    -0.004 A 
ATOM     93  CE2 PHE A   5      39.986  23.330  12.350  0.00  0.00    -0.000 A 
ATOM     94  CZ  PHE A   5      40.912  22.339  12.078  0.00  0.00    -0.000 A 
ATOM     95  CE1 PHE A   5      41.190  21.995  10.762  0.00  0.00    -0.000 A 
ATOM     96  CD1 PHE A   5      40.535  22.651   9.722  0.00  0.00    -0.004 A 
ENDBRANCH  90  91
ENDBRANCH  51  90
ENDBRANCH   1  51
TORSDOF 40
REMARK  Name = ../refined-set-2016/2qu6/2qu6_pocket.pdb
REMARK  233 active torsions:
REMARK  status: ('A' for Active; 'I' for Inactive)
REMARK    1  A    between atoms: _1  and  _3
REMARK    2  A    between atoms: _3  and  _4
REMARK    3  A    between atoms: _3  and  _6
REMARK    4  A    between atoms: _6  and  _7
REMARK    5  A    between atoms: _7  and  _8
REMARK    6  A    between atoms: _8  and  _9
REMARK    7  A    between atoms: _9  and  _10
REMARK    8  A    between atoms: _15  and  _16
REMARK    9  A    between atoms: _21  and  _23
REMARK   10  A    between atoms: _23  and  _24
REMARK   11  A    between atoms: _23  and  _26
REMARK   12  A    between atoms: _26  and  _27
REMARK   13  A    between atoms: _30  and  _32
REMARK   14  A    between atoms: _32  and  _33
REMARK   15  A    between atoms: _32  and  _35
REMARK   16  A    between atoms: _35  and  _36
REMARK   17  A    between atoms: _36  and  _37
REMARK   18  A    between atoms: _42  and  _44
REMARK   19  A    between atoms: _44  and  _45
REMARK   20  A    between atoms: _44  and  _47
REMARK   21  A    between atoms: _50  and  _52
REMARK   22  A    between atoms: _52  and  _53
REMARK   23  A    between atoms: _52  and  _55
REMARK   24  A    between atoms: _55  and  _56
REMARK   25  A    between atoms: _59  and  _61
REMARK   26  A    between atoms: _61  and  _62
REMARK   27  A    between atoms: _61  and  _64
REMARK   28  A    between atoms: _64  and  _65
REMARK   29  A    between atoms: _65  and  _66
REMARK   30  A    between atoms: _69  and  _71
REMARK   31  A    between atoms: _71  and  _72
REMARK   32  A    between atoms: _71  and  _74
REMARK   33  A    between atoms: _74  and  _75
REMARK   34  A    between atoms: _78  and  _80
REMARK   35  A    between atoms: _80  and  _81
REMARK   36  A    between atoms: _80  and  _83
REMARK   37  A    between atoms: _86  and  _88
REMARK   38  A    between atoms: _88  and  _89
REMARK   39  A    between atoms: _92  and  _94
REMARK   40  A    between atoms: _94  and  _95
REMARK   41  A    between atoms: _94  and  _97
REMARK   42  A    between atoms: _100  and  _102
REMARK   43  A    between atoms: _102  and  _103
REMARK   44  A    between atoms: _102  and  _105
REMARK   45  A    between atoms: _105  and  _106
REMARK   46  A    between atoms: _106  and  _107
REMARK   47  A    between atoms: _107  and  _108
REMARK   48  A    between atoms: _108  and  _109
REMARK   49  A    between atoms: _113  and  _115
REMARK   50  A    between atoms: _115  and  _116
REMARK   51  A    between atoms: _115  and  _118
REMARK   52  A    between atoms: _118  and  _119
REMARK   53  A    between atoms: _119  and  _120
REMARK   54  A    between atoms: _122  and  _124
REMARK   55  A    between atoms: _124  and  _125
REMARK   56  A    between atoms: _128  and  _130
REMARK   57  A    between atoms: _130  and  _131
REMARK   58  A    between atoms: _130  and  _133
REMARK   59  A    between atoms: _133  and  _134
REMARK   60  A    between atoms: _137  and  _139
REMARK   61  A    between atoms: _139  and  _140
REMARK   62  A    between atoms: _139  and  _142
REMARK   63  A    between atoms: _142  and  _143
REMARK   64  A    between atoms: _145  and  _147
REMARK   65  A    between atoms: _147  and  _148
REMARK   66  A    between atoms: _147  and  _150
REMARK   67  A    between atoms: _150  and  _151
REMARK   68  A    between atoms: _151  and  _152
REMARK   69  A    between atoms: _155  and  _157
REMARK   70  A    between atoms: _157  and  _158
REMARK   71  A    between atoms: _157  and  _160
REMARK   72  A    between atoms: _160  and  _161
REMARK   73  A    between atoms: _164  and  _166
REMARK   74  A    between atoms: _166  and  _167
REMARK   75  A    between atoms: _166  and  _169
REMARK   76  A    between atoms: _169  and  _170
REMARK   77  A    between atoms: _173  and  _175
REMARK   78  A    between atoms: _175  and  _176
REMARK   79  A    between atoms: _175  and  _178
REMARK   80  A    between atoms: _178  and  _179
REMARK   81  A    between atoms: _182  and  _184
REMARK   82  A    between atoms: _184  and  _185
REMARK   83  A    between atoms: _184  and  _187
REMARK   84  A    between atoms: _187  and  _188
REMARK   85  A    between atoms: _191  and  _193
REMARK   86  A    between atoms: _193  and  _194
REMARK   87  A    between atoms: _193  and  _196
REMARK   88  A    between atoms: _196  and  _197
REMARK   89  A    between atoms: _202  and  _204
REMARK   90  A    between atoms: _204  and  _205
REMARK   91  A    between atoms: _204  and  _207
REMARK   92  A    between atoms: _210  and  _212
REMARK   93  A    between atoms: _212  and  _213
REMARK   94  A    between atoms: _212  and  _215
REMARK   95  A    between atoms: _218  and  _220
REMARK   96  A    between atoms: _220  and  _221
REMARK   97  A    between atoms: _220  and  _223
REMARK   98  A    between atoms: _223  and  _224
REMARK   99  A    between atoms: _229  and  _231
REMARK  100  A    between atoms: _231  and  _232
REMARK  101  A    between atoms: _231  and  _234
REMARK  102  A    between atoms: _234  and  _235
REMARK  103  A    between atoms: _238  and  _240
REMARK  104  A    between atoms: _240  and  _241
REMARK  105  A    between atoms: _240  and  _243
REMARK  106  A    between atoms: _243  and  _244
REMARK  107  A    between atoms: _247  and  _249
REMARK  108  A    between atoms: _249  and  _250
REMARK  109  A    between atoms: _249  and  _252
REMARK  110  A    between atoms: _255  and  _257
REMARK  111  A    between atoms: _257  and  _258
REMARK  112  A    between atoms: _257  and  _260
REMARK  113  A    between atoms: _260  and  _261
REMARK  114  A    between atoms: _264  and  _266
REMARK  115  A    between atoms: _266  and  _267
REMARK  116  A    between atoms: _266  and  _269
REMARK  117  A    between atoms: _269  and  _270
REMARK  118  A    between atoms: _273  and  _275
REMARK  119  A    between atoms: _275  and  _276
REMARK  120  A    between atoms: _275  and  _278
REMARK  121  A    between atoms: _278  and  _279
REMARK  122  A    between atoms: _279  and  _280
REMARK  123  A    between atoms: _283  and  _285
REMARK  124  A    between atoms: _285  and  _286
REMARK  125  A    between atoms: _285  and  _288
REMARK  126  A    between atoms: _288  and  _289
REMARK  127  A    between atoms: _295  and  _297
REMARK  128  A    between atoms: _297  and  _298
REMARK  129  A    between atoms: _297  and  _300
REMARK  130  A    between atoms: _302  and  _304
REMARK  131  A    between atoms: _304  and  _305
REMARK  132  A    between atoms: _304  and  _307
REMARK  133  A    between atoms: _307  and  _308
REMARK  134  A    between atoms: _308  and  _309
REMARK  135  A    between atoms: _309  and  _310
REMARK  136  A    between atoms: _310  and  _311
REMARK  137  A    between atoms: _315  and  _317
REMARK  138  A    between atoms: _317  and  _318
REMARK  139  A    between atoms: _317  and  _320
REMARK  140  A    between atoms: _320  and  _321
REMARK  141  A    between atoms: _327  and  _329
REMARK  142  A    between atoms: _329  and  _330
REMARK  143  A    between atoms: _332  and  _334
REMARK  144  A    between atoms: _334  and  _335
REMARK  145  A    between atoms: _334  and  _337
REMARK  146  A    between atoms: _337  and  _338
REMARK  147  A    between atoms: _343  and  _345
REMARK  148  A    between atoms: _345  and  _346
REMARK  149  A    between atoms: _348  and  _350
REMARK  150  A    between atoms: _350  and  _351
REMARK  151  A    between atoms: _350  and  _353
REMARK  152  A    between atoms: _353  and  _354
REMARK  153  A    between atoms: _354  and  _355
REMARK  154  A    between atoms: _357  and  _359
REMARK  155  A    between atoms: _359  and  _360
REMARK  156  A    between atoms: _359  and  _362
REMARK  157  A    between atoms: _362  and  _363
REMARK  158  A    between atoms: _369  and  _371
REMARK  159  A    between atoms: _371  and  _372
REMARK  160  A    between atoms: _371  and  _374
REMARK  161  A    between atoms: _374  and  _375
REMARK  162  A    between atoms: _378  and  _380
REMARK  163  A    between atoms: _380  and  _381
REMARK  164  A    between atoms: _380  and  _383
REMARK  165  A    between atoms: _383  and  _384
REMARK  166  A    between atoms: _384  and  _385
REMARK  167  A    between atoms: _385  and  _386
REMARK  168  A    between atoms: _386  and  _387
REMARK  169  A    between atoms: _391  and  _393
REMARK  170  A    between atoms: _393  and  _394
REMARK  171  A    between atoms: _393  and  _396
REMARK  172  A    between atoms: _398  and  _400
REMARK  173  A    between atoms: _400  and  _401
REMARK  174  A    between atoms: _400  and  _403
REMARK  175  A    between atoms: _403  and  _404
REMARK  176  A    between atoms: _407  and  _409
REMARK  177  A    between atoms: _409  and  _410
REMARK  178  A    between atoms: _409  and  _412
REMARK  179  A    between atoms: _412  and  _413
REMARK  180  A    between atoms: _418  and  _420
REMARK  181  A    between atoms: _420  and  _421
REMARK  182  A    between atoms: _420  and  _423
REMARK  183  A    between atoms: _423  and  _424
REMARK  184  A    between atoms: _424  and  _425
REMARK  185  A    between atoms: _425  and  _426
REMARK  186  A    between atoms: _435  and  _437
REMARK  187  A    between atoms: _437  and  _438
REMARK  188  A    between atoms: _437  and  _440
REMARK  189  A    between atoms: _440  and  _441
REMARK  190  A    between atoms: _444  and  _446
REMARK  191  A    between atoms: _446  and  _447
REMARK  192  A    between atoms: _446  and  _449
REMARK  193  A    between atoms: _449  and  _450
REMARK  194  A    between atoms: _455  and  _457
REMARK  195  A    between atoms: _457  and  _458
REMARK  196  A    between atoms: _457  and  _460
REMARK  197  A    between atoms: _460  and  _461
REMARK  198  A    between atoms: _464  and  _466
REMARK  199  A    between atoms: _466  and  _467
REMARK  200  A    between atoms: _466  and  _469
REMARK  201  A    between atoms: _469  and  _470
REMARK  202  A    between atoms: _473  and  _475
REMARK  203  A    between atoms: _475  and  _476
REMARK  204  A    between atoms: _475  and  _478
REMARK  205  A    between atoms: _478  and  _479
REMARK  206  A    between atoms: _481  and  _483
REMARK  207  A    between atoms: _483  and  _484
REMARK  208  A    between atoms: _483  and  _486
REMARK  209  A    between atoms: _486  and  _487
REMARK  210  A    between atoms: _487  and  _488
REMARK  211  A    between atoms: _488  and  _489
REMARK  212  A    between atoms: _489  and  _490
REMARK  213  A    between atoms: _494  and  _496
REMARK  214  A    between atoms: _496  and  _497
REMARK  215  A    between atoms: _496  and  _499
REMARK  216  A    between atoms: _499  and  _500
REMARK  217  A    between atoms: _503  and  _505
REMARK  218  A    between atoms: _505  and  _506
REMARK  219  A    between atoms: _505  and  _508
REMARK  220  A    between atoms: _510  and  _512
REMARK  221  A    between atoms: _512  and  _513
REMARK  222  A    between atoms: _512  and  _515
REMARK  223  A    between atoms: _515  and  _516
REMARK  224  A    between atoms: _519  and  _521
REMARK  225  A    between atoms: _521  and  _522
REMARK  226  A    between atoms: _521  and  _524
REMARK  227  A    between atoms: _524  and  _525
REMARK  228  A    between atoms: _531  and  _533
REMARK  229  A    between atoms: _533  and  _534
REMARK  230  A    between atoms: _536  and  _538
REMARK  231  A    between atoms: _538  and  _539
REMARK  232  A    between atoms: _538  and  _541
REMARK  233  A    between atoms: _541  and  _542
REMARK                            x       y       z     vdW  Elec       q    Type
REMARK                         _______ _______ _______ _____ _____    ______ ____
ROOT
ATOM      1  C   GLY A   1      46.414  42.309   5.359  0.00  0.00    +0.240 C 
ATOM      2  N   MET A   2      47.329  42.881   6.146  0.00  0.00    -0.298 N 
ATOM      3  H   MET A   2      48.258  42.427   6.259  0.00  0.00    +0.150 HD
ATOM      4  O   GLY A   1      45.277  42.780   5.197  0.00  0.00    -0.274 OA
ENDROOT
BRANCH   1   5
ATOM      5  CA  GLY A   1      46.832  41.027   4.656  0.00  0.00    +0.169 C 
BRANCH   5   6
ATOM      6  N   GLY A   1      48.175  41.128   4.097  0.00  0.00    -0.236 NA
ATOM      7  H   GLY A   1      48.917  40.476   4.421  0.00  0.00    +0.142 HD
ENDBRANCH   5   6
ENDBRANCH   1   5
BRANCH   2   8
ATOM      8  CA  MET A   2      47.053  44.132   6.853  0.00  0.00    +0.138 C 
BRANCH   8   9
ATOM      9  C   MET A   2      46.994  45.301   5.853  0.00  0.00    +0.227 C 
ATOM     10  O   MET A   2      46.257  46.256   6.061  0.00  0.00    -0.286 OA
ENDBRANCH   8   9
BRANCH   8  11
ATOM     11  CB  MET A   2      48.123  44.408   7.924  0.00  0.00    +0.039 C 
BRANCH  11  12
ATOM     12  CG  MET A   2      48.049  43.509   9.156  0.00  0.00    +0.060 C 
BRANCH  12  13
ATOM     13  SD  MET A   2      46.417  43.496   9.938  0.00  0.00    -0.139 S 
ATOM     14  CE  MET A   2      46.278  45.178  10.538  0.00  0.00    +0.069 C 
ENDBRANCH  12  13
ENDBRANCH  11  12
ENDBRANCH   8  11
ENDBRANCH   2   8
TORSDOF 7
REMARK  Name = ../refined-set-2016/2qu6/2qu6_pocket.pdb
REMARK  233 active torsions:
REMARK  status: ('A' for Active; 'I' for Inactive)
REMARK    1  A    between atoms: _1  and  _3
REMARK    2  A    between atoms: _3  and  _4
REMARK    3  A    between atoms: _3  and  _6
REMARK    4  A    between atoms: _6  and  _7
REMARK    5  A    between atoms: _7  and  _8
REMARK    6  A    between atoms: _8  and  _9
REMARK    7  A    between atoms: _9  and  _10
REMARK    8  A    between atoms: _15  and  _16
REMARK    9  A    between atoms: _21  and  _23
REMARK   10  A    between atoms: _23  and  _24
REMARK   11  A    between atoms: _23  and  _26
REMARK   12  A    between atoms: _26  and  _27
REMARK   13  A    between atoms: _30  and  _32
REMARK   14  A    between atoms: _32  and  _33
REMARK   15  A    between atoms: _32  and  _35
REMARK   16  A    between atoms: _35  and  _36
REMARK   17  A    between atoms: _36  and  _37
REMARK   18  A    between atoms: _42  and  _44
REMARK   19  A    between atoms: _44  and  _45
REMARK   20  A    between atoms: _44  and  _47
REMARK   21  A    between atoms: _50  and  _52
REMARK   22  A    between atoms: _52  and  _53
REMARK   23  A    between atoms: _52  and  _55
REMARK   24  A    between atoms: _55  and  _56
REMARK   25  A    between atoms: _59  and  _61
REMARK   26  A    between atoms: _61  and  _62
REMARK   27  A    between atoms: _61  and  _64
REMARK   28  A    between atoms: _64  and  _65
REMARK   29  A    between atoms: _65  and  _66
REMARK   30  A    between atoms: _69  and  _71
REMARK   31  A    between atoms: _71  and  _72
REMARK   32  A    between atoms: _71  and  _74
REMARK   33  A    between atoms: _74  and  _75
REMARK   34  A    between atoms: _78  and  _80
REMARK   35  A    between atoms: _80  and  _81
REMARK   36  A    between atoms: _80  and  _83
REMARK   37  A    between atoms: _86  and  _88
REMARK   38  A    between atoms: _88  and  _89
REMARK   39  A    between atoms: _92  and  _94
REMARK   40  A    between atoms: _94  and  _95
REMARK   41  A    between atoms: _94  and  _97
REMARK   42  A    between atoms: _100  and  _102
REMARK   43  A    between atoms: _102  and  _103
REMARK   44  A    between atoms: _102  and  _105
REMARK   45  A    between atoms: _105  and  _106
REMARK   46  A    between atoms: _106  and  _107
REMARK   47  A    between atoms: _107  and  _108
REMARK   48  A    between atoms: _108  and  _109
REMARK   49  A    between atoms: _113  and  _115
REMARK   50  A    between atoms: _115  and  _116
REMARK   51  A    between atoms: _115  and  _118
REMARK   52  A    between atoms: _118  and  _119
REMARK   53  A    between atoms: _119  and  _120
REMARK   54  A    between atoms: _122  and  _124
REMARK   55  A    between atoms: _124  and  _125
REMARK   56  A    between atoms: _128  and  _130
REMARK   57  A    between atoms: _130  and  _131
REMARK   58  A    between atoms: _130  and  _133
REMARK   59  A    between atoms: _133  and  _134
REMARK   60  A    between atoms: _137  and  _139
REMARK   61  A    between atoms: _139  and  _140
REMARK   62  A    between atoms: _139  and  _142
REMARK   63  A    between atoms: _142  and  _143
REMARK   64  A    between atoms: _145  and  _147
REMARK   65  A    between atoms: _147  and  _148
REMARK   66  A    between atoms: _147  and  _150
REMARK   67  A    between atoms: _150  and  _151
REMARK   68  A    between atoms: _151  and  _152
REMARK   69  A    between atoms: _155  and  _157
REMARK   70  A    between atoms: _157  and  _158
REMARK   71  A    between atoms: _157  and  _160
REMARK   72  A    between atoms: _160  and  _161
REMARK   73  A    between atoms: _164  and  _166
REMARK   74  A    between atoms: _166  and  _167
REMARK   75  A    between atoms: _166  and  _169
REMARK   76  A    between atoms: _169  and  _170
REMARK   77  A    between atoms: _173  and  _175
REMARK   78  A    between atoms: _175  and  _176
REMARK   79  A    between atoms: _175  and  _178
REMARK   80  A    between atoms: _178  and  _179
REMARK   81  A    between atoms: _182  and  _184
REMARK   82  A    between atoms: _184  and  _185
REMARK   83  A    between atoms: _184  and  _187
REMARK   84  A    between atoms: _187  and  _188
REMARK   85  A    between atoms: _191  and  _193
REMARK   86  A    between atoms: _193  and  _194
REMARK   87  A    between atoms: _193  and  _196
REMARK   88  A    between atoms: _196  and  _197
REMARK   89  A    between atoms: _202  and  _204
REMARK   90  A    between atoms: _204  and  _205
REMARK   91  A    between atoms: _204  and  _207
REMARK   92  A    between atoms: _210  and  _212
REMARK   93  A    between atoms: _212  and  _213
REMARK   94  A    between atoms: _212  and  _215
REMARK   95  A    between atoms: _218  and  _220
REMARK   96  A    between atoms: _220  and  _221
REMARK   97  A    between atoms: _220  and  _223
REMARK   98  A    between atoms: _223  and  _224
REMARK   99  A    between atoms: _229  and  _231
REMARK  100  A    between atoms: _231  and  _232
REMARK  101  A    between atoms: _231  and  _234
REMARK  102  A    between atoms: _234  and  _235
REMARK  103  A    between atoms: _238  and  _240
REMARK  104  A    between atoms: _240  and  _241
REMARK  105  A    between atoms: _240  and  _243
REMARK  106  A    between atoms: _243  and  _244
REMARK  107  A    between atoms: _247  and  _249
REMARK  108  A    between atoms: _249  and  _250
REMARK  109  A    between atoms: _249  and  _252
REMARK  110  A    between atoms: _255  and  _257
REMARK  111  A    between atoms: _257  and  _258
REMARK  112  A    between atoms: _257  and  _260
REMARK  113  A    between atoms: _260  and  _261
REMARK  114  A    between atoms: _264  and  _266
REMARK  115  A    between atoms: _266  and  _267
REMARK  116  A    between atoms: _266  and  _269
REMARK  117  A    between atoms: _269  and  _270
REMARK  118  A    between atoms: _273  and  _275
REMARK  119  A    between atoms: _275  and  _276
REMARK  120  A    between atoms: _275  and  _278
REMARK  121  A    between atoms: _278  and  _279
REMARK  122  A    between atoms: _279  and  _280
REMARK  123  A    between atoms: _283  and  _285
REMARK  124  A    between atoms: _285  and  _286
REMARK  125  A    between atoms: _285  and  _288
REMARK  126  A    between atoms: _288  and  _289
REMARK  127  A    between atoms: _295  and  _297
REMARK  128  A    between atoms: _297  and  _298
REMARK  129  A    between atoms: _297  and  _300
REMARK  130  A    between atoms: _302  and  _304
REMARK  131  A    between atoms: _304  and  _305
REMARK  132  A    between atoms: _304  and  _307
REMARK  133  A    between atoms: _307  and  _308
REMARK  134  A    between atoms: _308  and  _309
REMARK  135  A    between atoms: _309  and  _310
REMARK  136  A    between atoms: _310  and  _311
REMARK  137  A    between atoms: _315  and  _317
REMARK  138  A    between atoms: _317  and  _318
REMARK  139  A    between atoms: _317  and  _320
REMARK  140  A    between atoms: _320  and  _321
REMARK  141  A    between atoms: _327  and  _329
REMARK  142  A    between atoms: _329  and  _330
REMARK  143  A    between atoms: _332  and  _334
REMARK  144  A    between atoms: _334  and  _335
REMARK  145  A    between atoms: _334  and  _337
REMARK  146  A    between atoms: _337  and  _338
REMARK  147  A    between atoms: _343  and  _345
REMARK  148  A    between atoms: _345  and  _346
REMARK  149  A    between atoms: _348  and  _350
REMARK  150  A    between atoms: _350  and  _351
REMARK  151  A    between atoms: _350  and  _353
REMARK  152  A    between atoms: _353  and  _354
REMARK  153  A    between atoms: _354  and  _355
REMARK  154  A    between atoms: _357  and  _359
REMARK  155  A    between atoms: _359  and  _360
REMARK  156  A    between atoms: _359  and  _362
REMARK  157  A    between atoms: _362  and  _363
REMARK  158  A    between atoms: _369  and  _371
REMARK  159  A    between atoms: _371  and  _372
REMARK  160  A    between atoms: _371  and  _374
REMARK  161  A    between atoms: _374  and  _375
REMARK  162  A    between atoms: _378  and  _380
REMARK  163  A    between atoms: _380  and  _381
REMARK  164  A    between atoms: _380  and  _383
REMARK  165  A    between atoms: _383  and  _384
REMARK  166  A    between atoms: _384  and  _385
REMARK  167  A    between atoms: _385  and  _386
REMARK  168  A    between atoms: _386  and  _387
REMARK  169  A    between atoms: _391  and  _393
REMARK  170  A    between atoms: _393  and  _394
REMARK  171  A    between atoms: _393  and  _396
REMARK  172  A    between atoms: _398  and  _400
REMARK  173  A    between atoms: _400  and  _401
REMARK  174  A    between atoms: _400  and  _403
REMARK  175  A    between atoms: _403  and  _404
REMARK  176  A    between atoms: _407  and  _409
REMARK  177  A    between atoms: _409  and  _410
REMARK  178  A    between atoms: _409  and  _412
REMARK  179  A    between atoms: _412  and  _413
REMARK  180  A    between atoms: _418  and  _420
REMARK  181  A    between atoms: _420  and  _421
REMARK  182  A    between atoms: _420  and  _423
REMARK  183  A    between atoms: _423  and  _424
REMARK  184  A    between atoms: _424  and  _425
REMARK  185  A    between atoms: _425  and  _426
REMARK  186  A    between atoms: _435  and  _437
REMARK  187  A    between atoms: _437  and  _438
REMARK  188  A    between atoms: _437  and  _440
REMARK  189  A    between atoms: _440  and  _441
REMARK  190  A    between atoms: _444  and  _446
REMARK  191  A    between atoms: _446  and  _447
REMARK  192  A    between atoms: _446  and  _449
REMARK  193  A    between atoms: _449  and  _450
REMARK  194  A    between atoms: _455  and  _457
REMARK  195  A    between atoms: _457  and  _458
REMARK  196  A    between atoms: _457  and  _460
REMARK  197  A    between atoms: _460  and  _461
REMARK  198  A    between atoms: _464  and  _466
REMARK  199  A    between atoms: _466  and  _467
REMARK  200  A    between atoms: _466  and  _469
REMARK  201  A    between atoms: _469  and  _470
REMARK  202  A    between atoms: _473  and  _475
REMARK  203  A    between atoms: _475  and  _476
REMARK  204  A    between atoms: _475  and  _478
REMARK  205  A    between atoms: _478  and  _479
REMARK  206  A    between atoms: _481  and  _483
REMARK  207  A    between atoms: _483  and  _484
REMARK  208  A    between atoms: _483  and  _486
REMARK  209  A    between atoms: _486  and  _487
REMARK  210  A    between atoms: _487  and  _488
REMARK  211  A    between atoms: _488  and  _489
REMARK  212  A    between atoms: _489  and  _490
REMARK  213  A    between atoms: _494  and  _496
REMARK  214  A    between atoms: _496  and  _497
REMARK  215  A    between atoms: _496  and  _499
REMARK  216  A    between atoms: _499  and  _500
REMARK  217  A    between atoms: _503  and  _505
REMARK  218  A    between atoms: _505  and  _506
REMARK  219  A    between atoms: _505  and  _508
REMARK  220  A    between atoms: _510  and  _512
REMARK  221  A    between atoms: _512  and  _513
REMARK  222  A    between atoms: _512  and  _515
REMARK  223  A    between atoms: _515  and  _516
REMARK  224  A    between atoms: _519  and  _521
REMARK  225  A    between atoms: _521  and  _522
REMARK  226  A    between atoms: _521  and  _524
REMARK  227  A    between atoms: _524  and  _525
REMARK  228  A    between atoms: _531  and  _533
REMARK  229  A    between atoms: _533  and  _534
REMARK  230  A    between atoms: _536  and  _538
REMARK  231  A    between atoms: _538  and  _539
REMARK  232  A    between atoms: _538  and  _541
REMARK  233  A    between atoms: _541  and  _542
REMARK                            x       y       z     vdW  Elec       q    Type
REMARK                         _______ _______ _______ _____ _____    ______ ____
ROOT
ATOM      1  C   PHE A   1      43.336  45.467   3.409  0.00  0.00    +0.239 C 
ATOM      2  N   LEU A   2      43.481  45.207   4.712  0.00  0.00    -0.298 N 
ATOM      3  H   LEU A   2      44.300  44.648   5.026  0.00  0.00    +0.150 HD
ATOM      4  O   PHE A   1      42.393  46.115   2.955  0.00  0.00    -0.274 OA
ENDROOT
BRANCH   1   5
ATOM      5  CA  PHE A   1      44.407  44.899   2.468  0.00  0.00    +0.149 C 
BRANCH   5   6
ATOM      6  N   PHE A   1      45.758  45.102   2.997  0.00  0.00    -0.238 NA
ATOM      7  H   PHE A   1      46.323  44.261   3.232  0.00  0.00    +0.142 HD
ENDBRANCH   5   6
BRANCH   5   8
ATOM      8  CB  PHE A   1      44.155  43.393   2.268  0.00  0.00    +0.053 C 
BRANCH   8   9
ATOM      9  CG  PHE A   1      42.756  43.049   1.821  0.00  0.00    -0.020 A 
ATOM     10  CD2 PHE A   1      41.824  42.557   2.728  0.00  0.00    -0.004 A 
ATOM     11  CE2 PHE A   1      40.541  42.187   2.312  0.00  0.00    -0.000 A 
ATOM     12  CZ  PHE A   1      40.184  42.315   0.967  0.00  0.00    -0.000 A 
ATOM     13  CE1 PHE A   1      41.105  42.809   0.053  0.00  0.00    -0.000 A 
ATOM     14  CD1 PHE A   1      42.385  43.174   0.482  0.00  0.00    -0.004 A 
ENDBRANCH   8   9
ENDBRANCH   5   8
ENDBRANCH   1   5
BRANCH   2  15
ATOM     15  CA  LEU A   2      42.524  45.683   5.711  0.00  0.00    +0.137 C 
BRANCH  15  16
ATOM     16  C   LEU A   2      42.639  47.194   5.968  0.00  0.00    +0.227 C 
ATOM     17  O   LEU A   2      41.627  47.880   6.129  0.00  0.00    -0.286 OA
ENDBRANCH  15  16
BRANCH  15  18
ATOM     18  CB  LEU A   2      42.691  44.913   7.039  0.00  0.00    +0.028 C 
BRANCH  18  19
ATOM     19  CG  LEU A   2      42.413  43.394   7.092  0.00  0.00    +0.002 C 
ATOM     20  CD2 LEU A   2      42.826  42.825   8.458  0.00  0.00    +0.000 C 
ATOM     21  CD1 LEU A   2      40.940  43.110   6.818  0.00  0.00    +0.000 C 
ENDBRANCH  18  19
ENDBRANCH  15  18
ENDBRANCH   2  15
TORSDOF 8
REMARK  Name = ../refined-set-2016/2qu6/2qu6_pocket.pdb
REMARK  233 active torsions:
REMARK  status: ('A' for Active; 'I' for Inactive)
REMARK    1  A    between atoms: _1  and  _3
REMARK    2  A    between atoms: _3  and  _4
REMARK    3  A    between atoms: _3  and  _6
REMARK    4  A    between atoms: _6  and  _7
REMARK    5  A    between atoms: _7  and  _8
REMARK    6  A    between atoms: _8  and  _9
REMARK    7  A    between atoms: _9  and  _10
REMARK    8  A    between atoms: _15  and  _16
REMARK    9  A    between atoms: _21  and  _23
REMARK   10  A    between atoms: _23  and  _24
REMARK   11  A    between atoms: _23  and  _26
REMARK   12  A    between atoms: _26  and  _27
REMARK   13  A    between atoms: _30  and  _32
REMARK   14  A    between atoms: _32  and  _33
REMARK   15  A    between atoms: _32  and  _35
REMARK   16  A    between atoms: _35  and  _36
REMARK   17  A    between atoms: _36  and  _37
REMARK   18  A    between atoms: _42  and  _44
REMARK   19  A    between atoms: _44  and  _45
REMARK   20  A    between atoms: _44  and  _47
REMARK   21  A    between atoms: _50  and  _52
REMARK   22  A    between atoms: _52  and  _53
REMARK   23  A    between atoms: _52  and  _55
REMARK   24  A    between atoms: _55  and  _56
REMARK   25  A    between atoms: _59  and  _61
REMARK   26  A    between atoms: _61  and  _62
REMARK   27  A    between atoms: _61  and  _64
REMARK   28  A    between atoms: _64  and  _65
REMARK   29  A    between atoms: _65  and  _66
REMARK   30  A    between atoms: _69  and  _71
REMARK   31  A    between atoms: _71  and  _72
REMARK   32  A    between atoms: _71  and  _74
REMARK   33  A    between atoms: _74  and  _75
REMARK   34  A    between atoms: _78  and  _80
REMARK   35  A    between atoms: _80  and  _81
REMARK   36  A    between atoms: _80  and  _83
REMARK   37  A    between atoms: _86  and  _88
REMARK   38  A    between atoms: _88  and  _89
REMARK   39  A    between atoms: _92  and  _94
REMARK   40  A    between atoms: _94  and  _95
REMARK   41  A    between atoms: _94  and  _97
REMARK   42  A    between atoms: _100  and  _102
REMARK   43  A    between atoms: _102  and  _103
REMARK   44  A    between atoms: _102  and  _105
REMARK   45  A    between atoms: _105  and  _106
REMARK   46  A    between atoms: _106  and  _107
REMARK   47  A    between atoms: _107  and  _108
REMARK   48  A    between atoms: _108  and  _109
REMARK   49  A    between atoms: _113  and  _115
REMARK   50  A    between atoms: _115  and  _116
REMARK   51  A    between atoms: _115  and  _118
REMARK   52  A    between atoms: _118  and  _119
REMARK   53  A    between atoms: _119  and  _120
REMARK   54  A    between atoms: _122  and  _124
REMARK   55  A    between atoms: _124  and  _125
REMARK   56  A    between atoms: _128  and  _130
REMARK   57  A    between atoms: _130  and  _131
REMARK   58  A    between atoms: _130  and  _133
REMARK   59  A    between atoms: _133  and  _134
REMARK   60  A    between atoms: _137  and  _139
REMARK   61  A    between atoms: _139  and  _140
REMARK   62  A    between atoms: _139  and  _142
REMARK   63  A    between atoms: _142  and  _143
REMARK   64  A    between atoms: _145  and  _147
REMARK   65  A    between atoms: _147  and  _148
REMARK   66  A    between atoms: _147  and  _150
REMARK   67  A    between atoms: _150  and  _151
REMARK   68  A    between atoms: _151  and  _152
REMARK   69  A    between atoms: _155  and  _157
REMARK   70  A    between atoms: _157  and  _158
REMARK   71  A    between atoms: _157  and  _160
REMARK   72  A    between atoms: _160  and  _161
REMARK   73  A    between atoms: _164  and  _166
REMARK   74  A    between atoms: _166  and  _167
REMARK   75  A    between atoms: _166  and  _169
REMARK   76  A    between atoms: _169  and  _170
REMARK   77  A    between atoms: _173  and  _175
REMARK   78  A    between atoms: _175  and  _176
REMARK   79  A    between atoms: _175  and  _178
REMARK   80  A    between atoms: _178  and  _179
REMARK   81  A    between atoms: _182  and  _184
REMARK   82  A    between atoms: _184  and  _185
REMARK   83  A    between atoms: _184  and  _187
REMARK   84  A    between atoms: _187  and  _188
REMARK   85  A    between atoms: _191  and  _193
REMARK   86  A    between atoms: _193  and  _194
REMARK   87  A    between atoms: _193  and  _196
REMARK   88  A    between atoms: _196  and  _197
REMARK   89  A    between atoms: _202  and  _204
REMARK   90  A    between atoms: _204  and  _205
REMARK   91  A    between atoms: _204  and  _207
REMARK   92  A    between atoms: _210  and  _212
REMARK   93  A    between atoms: _212  and  _213
REMARK   94  A    between atoms: _212  and  _215
REMARK   95  A    between atoms: _218  and  _220
REMARK   96  A    between atoms: _220  and  _221
REMARK   97  A    between atoms: _220  and  _223
REMARK   98  A    between atoms: _223  and  _224
REMARK   99  A    between atoms: _229  and  _231
REMARK  100  A    between atoms: _231  and  _232
REMARK  101  A    between atoms: _231  and  _234
REMARK  102  A    between atoms: _234  and  _235
REMARK  103  A    between atoms: _238  and  _240
REMARK  104  A    between atoms: _240  and  _241
REMARK  105  A    between atoms: _240  and  _243
REMARK  106  A    between atoms: _243  and  _244
REMARK  107  A    between atoms: _247  and  _249
REMARK  108  A    between atoms: _249  and  _250
REMARK  109  A    between atoms: _249  and  _252
REMARK  110  A    between atoms: _255  and  _257
REMARK  111  A    between atoms: _257  and  _258
REMARK  112  A    between atoms: _257  and  _260
REMARK  113  A    between atoms: _260  and  _261
REMARK  114  A    between atoms: _264  and  _266
REMARK  115  A    between atoms: _266  and  _267
REMARK  116  A    between atoms: _266  and  _269
REMARK  117  A    between atoms: _269  and  _270
REMARK  118  A    between atoms: _273  and  _275
REMARK  119  A    between atoms: _275  and  _276
REMARK  120  A    between atoms: _275  and  _278
REMARK  121  A    between atoms: _278  and  _279
REMARK  122  A    between atoms: _279  and  _280
REMARK  123  A    between atoms: _283  and  _285
REMARK  124  A    between atoms: _285  and  _286
REMARK  125  A    between atoms: _285  and  _288
REMARK  126  A    between atoms: _288  and  _289
REMARK  127  A    between atoms: _295  and  _297
REMARK  128  A    between atoms: _297  and  _298
REMARK  129  A    between atoms: _297  and  _300
REMARK  130  A    between atoms: _302  and  _304
REMARK  131  A    between atoms: _304  and  _305
REMARK  132  A    between atoms: _304  and  _307
REMARK  133  A    between atoms: _307  and  _308
REMARK  134  A    between atoms: _308  and  _309
REMARK  135  A    between atoms: _309  and  _310
REMARK  136  A    between atoms: _310  and  _311
REMARK  137  A    between atoms: _315  and  _317
REMARK  138  A    between atoms: _317  and  _318
REMARK  139  A    between atoms: _317  and  _320
REMARK  140  A    between atoms: _320  and  _321
REMARK  141  A    between atoms: _327  and  _329
REMARK  142  A    between atoms: _329  and  _330
REMARK  143  A    between atoms: _332  and  _334
REMARK  144  A    between atoms: _334  and  _335
REMARK  145  A    between atoms: _334  and  _337
REMARK  146  A    between atoms: _337  and  _338
REMARK  147  A    between atoms: _343  and  _345
REMARK  148  A    between atoms: _345  and  _346
REMARK  149  A    between atoms: _348  and  _350
REMARK  150  A    between atoms: _350  and  _351
REMARK  151  A    between atoms: _350  and  _353
REMARK  152  A    between atoms: _353  and  _354
REMARK  153  A    between atoms: _354  and  _355
REMARK  154  A    between atoms: _357  and  _359
REMARK  155  A    between atoms: _359  and  _360
REMARK  156  A    between atoms: _359  and  _362
REMARK  157  A    between atoms: _362  and  _363
REMARK  158  A    between atoms: _369  and  _371
REMARK  159  A    between atoms: _371  and  _372
REMARK  160  A    between atoms: _371  and  _374
REMARK  161  A    between atoms: _374  and  _375
REMARK  162  A    between atoms: _378  and  _380
REMARK  163  A    between atoms: _380  and  _381
REMARK  164  A    between atoms: _380  and  _383
REMARK  165  A    between atoms: _383  and  _384
REMARK  166  A    between atoms: _384  and  _385
REMARK  167  A    between atoms: _385  and  _386
REMARK  168  A    between atoms: _386  and  _387
REMARK  169  A    between atoms: _391  and  _393
REMARK  170  A    between atoms: _393  and  _394
REMARK  171  A    between atoms: _393  and  _396
REMARK  172  A    between atoms: _398  and  _400
REMARK  173  A    between atoms: _400  and  _401
REMARK  174  A    between atoms: _400  and  _403
REMARK  175  A    between atoms: _403  and  _404
REMARK  176  A    between atoms: _407  and  _409
REMARK  177  A    between atoms: _409  and  _410
REMARK  178  A    between atoms: _409  and  _412
REMARK  179  A    between atoms: _412  and  _413
REMARK  180  A    between atoms: _418  and  _420
REMARK  181  A    between atoms: _420  and  _421
REMARK  182  A    between atoms: _420  and  _423
REMARK  183  A    between atoms: _423  and  _424
REMARK  184  A    between atoms: _424  and  _425
REMARK  185  A    between atoms: _425  and  _426
REMARK  186  A    between atoms: _435  and  _437
REMARK  187  A    between atoms: _437  and  _438
REMARK  188  A    between atoms: _437  and  _440
REMARK  189  A    between atoms: _440  and  _441
REMARK  190  A    between atoms: _444  and  _446
REMARK  191  A    between atoms: _446  and  _447
REMARK  192  A    between atoms: _446  and  _449
REMARK  193  A    between atoms: _449  and  _450
REMARK  194  A    between atoms: _455  and  _457
REMARK  195  A    between atoms: _457  and  _458
REMARK  196  A    between atoms: _457  and  _460
REMARK  197  A    between atoms: _460  and  _461
REMARK  198  A    between atoms: _464  and  _466
REMARK  199  A    between atoms: _466  and  _467
REMARK  200  A    between atoms: _466  and  _469
REMARK  201  A    between atoms: _469  and  _470
REMARK  202  A    between atoms: _473  and  _475
REMARK  203  A    between atoms: _475  and  _476
REMARK  204  A    between atoms: _475  and  _478
REMARK  205  A    between atoms: _478  and  _479
REMARK  206  A    between atoms: _481  and  _483
REMARK  207  A    between atoms: _483  and  _484
REMARK  208  A    between atoms: _483  and  _486
REMARK  209  A    between atoms: _486  and  _487
REMARK  210  A    between atoms: _487  and  _488
REMARK  211  A    between atoms: _488  and  _489
REMARK  212  A    between atoms: _489  and  _490
REMARK  213  A    between atoms: _494  and  _496
REMARK  214  A    between atoms: _496  and  _497
REMARK  215  A    between atoms: _496  and  _499
REMARK  216  A    between atoms: _499  and  _500
REMARK  217  A    between atoms: _503  and  _505
REMARK  218  A    between atoms: _505  and  _506
REMARK  219  A    between atoms: _505  and  _508
REMARK  220  A    between atoms: _510  and  _512
REMARK  221  A    between atoms: _512  and  _513
REMARK  222  A    between atoms: _512  and  _515
REMARK  223  A    between atoms: _515  and  _516
REMARK  224  A    between atoms: _519  and  _521
REMARK  225  A    between atoms: _521  and  _522
REMARK  226  A    between atoms: _521  and  _524
REMARK  227  A    between atoms: _524  and  _525
REMARK  228  A    between atoms: _531  and  _533
REMARK  229  A    between atoms: _533  and  _534
REMARK  230  A    between atoms: _536  and  _538
REMARK  231  A    between atoms: _538  and  _539
REMARK  232  A    between atoms: _538  and  _541
REMARK  233  A    between atoms: _541  and  _542
REMARK                            x       y       z     vdW  Elec       q    Type
REMARK                         _______ _______ _______ _____ _____    ______ ____
ROOT
ATOM      1  CA  HIS A   4      42.390  45.030  13.825  0.00  0.00    +0.155 C 
ENDROOT
BRANCH   1   2
ATOM      2  C   HIS A   4      42.227  45.158  15.329  0.00  0.00    +0.241 C 
ATOM      3  N   ARG A   5      43.105  45.933  15.953  0.00  0.00    -0.297 N 
ATOM      4  H   ARG A   5      43.853  46.388  15.391  0.00  0.00    +0.150 HD
ATOM      5  O   HIS A   4      41.326  44.560  15.900  0.00  0.00    -0.273 OA
BRANCH   3   6
ATOM      6  CA  ARG A   5      43.070  46.176  17.390  0.00  0.00    +0.149 C 
BRANCH   6   7
ATOM      7  C   ARG A   5      43.687  45.090  18.266  0.00  0.00    +0.241 C 
ATOM      8  O   ARG A   5      43.965  45.341  19.434  0.00  0.00    -0.273 OA
ATOM      9  N   ASP A   6      43.898  43.892  17.726  0.00  0.00    -0.298 N 
ATOM     10  H   ASP A   6      43.635  43.720  16.735  0.00  0.00    +0.150 HD
BRANCH   9  11
ATOM     11  CA  ASP A   6      44.498  42.813  18.516  0.00  0.00    +0.148 C 
BRANCH  11  12
ATOM     12  C   ASP A   6      45.417  41.935  17.671  0.00  0.00    +0.227 C 
ATOM     13  O   ASP A   6      45.354  40.715  17.735  0.00  0.00    -0.286 OA
ENDBRANCH  11  12
BRANCH  11  14
ATOM     14  CB  ASP A   6      43.399  41.963  19.161  0.00  0.00    +0.142 C 
BRANCH  14  15
ATOM     15  CG  ASP A   6      43.948  40.924  20.138  0.00  0.00    +0.367 C 
ATOM     16  OD2 ASP A   6      45.000  41.171  20.766  0.00  0.00    -0.246 OA
ATOM     17  OD1 ASP A   6      43.310  39.858  20.286  0.00  0.00    -0.246 OA
ENDBRANCH  14  15
ENDBRANCH  11  14
ENDBRANCH   9  11
ENDBRANCH   6   7
BRANCH   6  18
ATOM     18  CB  ARG A   5      41.631  46.447  17.860  0.00  0.00    +0.033 C 
BRANCH  18  19
ATOM     19  CG  ARG A   5      41.023  47.738  17.320  0.00  0.00    +0.045 C 
BRANCH  19  20
ATOM     20  CD  ARG A   5      39.545  47.874  17.700  0.00  0.00    +0.174 C 
BRANCH  20  21
ATOM     21  NE  ARG A   5      39.326  48.015  19.138  0.00  0.00    -0.265 N 
ATOM     22  HE  ARG A   5      39.480  47.179  19.737  0.00  0.00    +0.259 HD
ATOM     23  CZ  ARG A   5      38.942  49.145  19.732  0.00  0.00    +0.342 C 
ATOM     24  NH2 ARG A   5      38.766  49.183  21.052  0.00  0.00    -0.292 N 
ATOM     25 HH21 ARG A   5      38.928  48.329  21.623  0.00  0.00    +0.255 HD
ATOM     26 HH22 ARG A   5      38.466  50.067  21.511  0.00  0.00    +0.255 HD
ATOM     27  NH1 ARG A   5      38.724  50.241  19.012  0.00  0.00    -0.292 N 
ATOM     28 HH11 ARG A   5      38.425  51.120  19.480  0.00  0.00    +0.255 HD
ATOM     29 HH12 ARG A   5      38.853  50.220  17.980  0.00  0.00    +0.255 HD
ENDBRANCH  20  21
ENDBRANCH  19  20
ENDBRANCH  18  19
ENDBRANCH   6  18
ENDBRANCH   3   6
ENDBRANCH   1   2
BRANCH   1  32
ATOM     30  C   ILE A   3      41.539  47.205  13.168  0.00  0.00    +0.241 C 
ATOM     31  O   ILE A   3      40.514  47.028  13.821  0.00  0.00    -0.273 OA
ATOM     32  N   HIS A   4      42.524  46.310  13.129  0.00  0.00    -0.297 N 
ATOM     33  H   HIS A   4      43.394  46.522  12.600  0.00  0.00    +0.150 HD
BRANCH  30  34
ATOM     34  CA  ILE A   3      41.719  48.496  12.364  0.00  0.00    +0.149 C 
BRANCH  34  36
ATOM     35  C   CYS A   2      41.015  48.599  10.023  0.00  0.00    +0.242 C 
ATOM     36  N   ILE A   3      40.710  48.484  11.309  0.00  0.00    -0.297 N 
ATOM     37  H   ILE A   3      39.710  48.381  11.577  0.00  0.00    +0.150 HD
ATOM     38  O   CYS A   2      42.169  48.732   9.612  0.00  0.00    -0.273 OA
BRANCH  35  39
ATOM     39  CA  CYS A   2      39.838  48.544   9.054  0.00  0.00    +0.160 C 
BRANCH  39  42
ATOM     40  C   LYS A   1      39.746  50.786   8.114  0.00  0.00    +0.238 C 
ATOM     41  O   LYS A   1      39.439  51.270   9.195  0.00  0.00    -0.274 OA
ATOM     42  N   CYS A   2      39.964  49.485   7.947  0.00  0.00    -0.297 N 
ATOM     43  H   CYS A   2      40.230  49.131   7.006  0.00  0.00    +0.150 HD
BRANCH  40  44
ATOM     44  CA  LYS A   1      39.910  51.677   6.887  0.00  0.00    +0.145 C 
BRANCH  44  45
ATOM     45  N   LYS A   1      40.101  50.946   5.640  0.00  0.00    -0.238 NA
ATOM     46  H   LYS A   1      41.035  50.980   5.184  0.00  0.00    +0.142 HD
ENDBRANCH  44  45
BRANCH  44  47
ATOM     47  CB  LYS A   1      38.711  52.629   6.756  0.00  0.00    +0.026 C 
BRANCH  47  48
ATOM     48  CG  LYS A   1      38.916  53.699   5.680  0.00  0.00    -0.000 C 
BRANCH  48  49
ATOM     49  CD  LYS A   1      37.925  54.845   5.793  0.00  0.00    -0.024 C 
BRANCH  49  50
ATOM     50  CE  LYS A   1      36.520  54.429   5.391  0.00  0.00    -0.086 C 
BRANCH  50  51
ATOM     51  NZ  LYS A   1      35.602  55.603   5.435  0.00  0.00    +0.380 N 
ATOM     52  HZ1 LYS A   1      35.580  55.988   6.401  0.00  0.00    -0.089 HD
ATOM     53  HZ2 LYS A   1      34.645  55.304   5.158  0.00  0.00    -0.089 HD
ATOM     54  HZ3 LYS A   1      35.943  56.333   4.777  0.00  0.00    -0.089 HD
ENDBRANCH  50  51
ENDBRANCH  49  50
ENDBRANCH  48  49
ENDBRANCH  47  48
ENDBRANCH  44  47
ENDBRANCH  40  44
ENDBRANCH  39  42
BRANCH  39  55
ATOM     55  CB  CYS A   2      39.700  47.119   8.515  0.00  0.00    +0.098 C 
ATOM     56  SG  CYS A   2      38.160  46.853   7.648  0.00  0.00    -0.080 S 
ENDBRANCH  39  55
ENDBRANCH  35  39
ENDBRANCH  34  36
BRANCH  34  57
ATOM     57  CB  ILE A   3      41.507  49.694  13.285  0.00  0.00    +0.027 C 
ATOM     58  CG2 ILE A   3      42.581  49.713  14.350  0.00  0.00    +0.002 C 
BRANCH  57  59
ATOM     59  CG1 ILE A   3      41.491  50.981  12.454  0.00  0.00    +0.002 C 
ATOM     60  CD1 ILE A   3      40.982  52.171  13.207  0.00  0.00    +0.000 C 
ENDBRANCH  57  59
ENDBRANCH  34  57
ENDBRANCH  30  34
ENDBRANCH   1  32
BRANCH   1  61
ATOM     61  CB  HIS A   4      43.573  44.110  13.511  0.00  0.00    +0.076 C 
BRANCH  61  62
ATOM     62  CG  HIS A   4      43.344  42.687  13.916  0.00  0.00    +0.082 A 
ATOM     63  ND1 HIS A   4      43.294  42.282  15.235  0.00  0.00    -0.227 NA
ATOM     64  CE1 HIS A   4      43.048  40.985  15.285  0.00  0.00    +0.199 A 
ATOM     65  NE2 HIS A   4      42.936  40.534  14.049  0.00  0.00    -0.221 NA
ATOM     66  CD2 HIS A   4      43.116  41.577  13.174  0.00  0.00    +0.115 A 
ENDBRANCH  61  62
ENDBRANCH   1  61
TORSDOF 28
REMARK  Name = ../refined-set-2016/2qu6/2qu6_pocket.pdb
REMARK  233 active torsions:
REMARK  status: ('A' for Active; 'I' for Inactive)
REMARK    1  A    between atoms: _1  and  _3
REMARK    2  A    between atoms: _3  and  _4
REMARK    3  A    between atoms: _3  and  _6
REMARK    4  A    between atoms: _6  and  _7
REMARK    5  A    between atoms: _7  and  _8
REMARK    6  A    between atoms: _8  and  _9
REMARK    7  A    between atoms: _9  and  _10
REMARK    8  A    between atoms: _15  and  _16
REMARK    9  A    between atoms: _21  and  _23
REMARK   10  A    between atoms: _23  and  _24
REMARK   11  A    between atoms: _23  and  _26
REMARK   12  A    between atoms: _26  and  _27
REMARK   13  A    between atoms: _30  and  _32
REMARK   14  A    between atoms: _32  and  _33
REMARK   15  A    between atoms: _32  and  _35
REMARK   16  A    between atoms: _35  and  _36
REMARK   17  A    between atoms: _36  and  _37
REMARK   18  A    between atoms: _42  and  _44
REMARK   19  A    between atoms: _44  and  _45
REMARK   20  A    between atoms: _44  and  _47
REMARK   21  A    between atoms: _50  and  _52
REMARK   22  A    between atoms: _52  and  _53
REMARK   23  A    between atoms: _52  and  _55
REMARK   24  A    between atoms: _55  and  _56
REMARK   25  A    between atoms: _59  and  _61
REMARK   26  A    between atoms: _61  and  _62
REMARK   27  A    between atoms: _61  and  _64
REMARK   28  A    between atoms: _64  and  _65
REMARK   29  A    between atoms: _65  and  _66
REMARK   30  A    between atoms: _69  and  _71
REMARK   31  A    between atoms: _71  and  _72
REMARK   32  A    between atoms: _71  and  _74
REMARK   33  A    between atoms: _74  and  _75
REMARK   34  A    between atoms: _78  and  _80
REMARK   35  A    between atoms: _80  and  _81
REMARK   36  A    between atoms: _80  and  _83
REMARK   37  A    between atoms: _86  and  _88
REMARK   38  A    between atoms: _88  and  _89
REMARK   39  A    between atoms: _92  and  _94
REMARK   40  A    between atoms: _94  and  _95
REMARK   41  A    between atoms: _94  and  _97
REMARK   42  A    between atoms: _100  and  _102
REMARK   43  A    between atoms: _102  and  _103
REMARK   44  A    between atoms: _102  and  _105
REMARK   45  A    between atoms: _105  and  _106
REMARK   46  A    between atoms: _106  and  _107
REMARK   47  A    between atoms: _107  and  _108
REMARK   48  A    between atoms: _108  and  _109
REMARK   49  A    between atoms: _113  and  _115
REMARK   50  A    between atoms: _115  and  _116
REMARK   51  A    between atoms: _115  and  _118
REMARK   52  A    between atoms: _118  and  _119
REMARK   53  A    between atoms: _119  and  _120
REMARK   54  A    between atoms: _122  and  _124
REMARK   55  A    between atoms: _124  and  _125
REMARK   56  A    between atoms: _128  and  _130
REMARK   57  A    between atoms: _130  and  _131
REMARK   58  A    between atoms: _130  and  _133
REMARK   59  A    between atoms: _133  and  _134
REMARK   60  A    between atoms: _137  and  _139
REMARK   61  A    between atoms: _139  and  _140
REMARK   62  A    between atoms: _139  and  _142
REMARK   63  A    between atoms: _142  and  _143
REMARK   64  A    between atoms: _145  and  _147
REMARK   65  A    between atoms: _147  and  _148
REMARK   66  A    between atoms: _147  and  _150
REMARK   67  A    between atoms: _150  and  _151
REMARK   68  A    between atoms: _151  and  _152
REMARK   69  A    between atoms: _155  and  _157
REMARK   70  A    between atoms: _157  and  _158
REMARK   71  A    between atoms: _157  and  _160
REMARK   72  A    between atoms: _160  and  _161
REMARK   73  A    between atoms: _164  and  _166
REMARK   74  A    between atoms: _166  and  _167
REMARK   75  A    between atoms: _166  and  _169
REMARK   76  A    between atoms: _169  and  _170
REMARK   77  A    between atoms: _173  and  _175
REMARK   78  A    between atoms: _175  and  _176
REMARK   79  A    between atoms: _175  and  _178
REMARK   80  A    between atoms: _178  and  _179
REMARK   81  A    between atoms: _182  and  _184
REMARK   82  A    between atoms: _184  and  _185
REMARK   83  A    between atoms: _184  and  _187
REMARK   84  A    between atoms: _187  and  _188
REMARK   85  A    between atoms: _191  and  _193
REMARK   86  A    between atoms: _193  and  _194
REMARK   87  A    between atoms: _193  and  _196
REMARK   88  A    between atoms: _196  and  _197
REMARK   89  A    between atoms: _202  and  _204
REMARK   90  A    between atoms: _204  and  _205
REMARK   91  A    between atoms: _204  and  _207
REMARK   92  A    between atoms: _210  and  _212
REMARK   93  A    between atoms: _212  and  _213
REMARK   94  A    between atoms: _212  and  _215
REMARK   95  A    between atoms: _218  and  _220
REMARK   96  A    between atoms: _220  and  _221
REMARK   97  A    between atoms: _220  and  _223
REMARK   98  A    between atoms: _223  and  _224
REMARK   99  A    between atoms: _229  and  _231
REMARK  100  A    between atoms: _231  and  _232
REMARK  101  A    between atoms: _231  and  _234
REMARK  102  A    between atoms: _234  and  _235
REMARK  103  A    between atoms: _238  and  _240
REMARK  104  A    between atoms: _240  and  _241
REMARK  105  A    between atoms: _240  and  _243
REMARK  106  A    between atoms: _243  and  _244
REMARK  107  A    between atoms: _247  and  _249
REMARK  108  A    between atoms: _249  and  _250
REMARK  109  A    between atoms: _249  and  _252
REMARK  110  A    between atoms: _255  and  _257
REMARK  111  A    between atoms: _257  and  _258
REMARK  112  A    between atoms: _257  and  _260
REMARK  113  A    between atoms: _260  and  _261
REMARK  114  A    between atoms: _264  and  _266
REMARK  115  A    between atoms: _266  and  _267
REMARK  116  A    between atoms: _266  and  _269
REMARK  117  A    between atoms: _269  and  _270
REMARK  118  A    between atoms: _273  and  _275
REMARK  119  A    between atoms: _275  and  _276
REMARK  120  A    between atoms: _275  and  _278
REMARK  121  A    between atoms: _278  and  _279
REMARK  122  A    between atoms: _279  and  _280
REMARK  123  A    between atoms: _283  and  _285
REMARK  124  A    between atoms: _285  and  _286
REMARK  125  A    between atoms: _285  and  _288
REMARK  126  A    between atoms: _288  and  _289
REMARK  127  A    between atoms: _295  and  _297
REMARK  128  A    between atoms: _297  and  _298
REMARK  129  A    between atoms: _297  and  _300
REMARK  130  A    between atoms: _302  and  _304
REMARK  131  A    between atoms: _304  and  _305
REMARK  132  A    between atoms: _304  and  _307
REMARK  133  A    between atoms: _307  and  _308
REMARK  134  A    between atoms: _308  and  _309
REMARK  135  A    between atoms: _309  and  _310
REMARK  136  A    between atoms: _310  and  _311
REMARK  137  A    between atoms: _315  and  _317
REMARK  138  A    between atoms: _317  and  _318
REMARK  139  A    between atoms: _317  and  _320
REMARK  140  A    between atoms: _320  and  _321
REMARK  141  A    between atoms: _327  and  _329
REMARK  142  A    between atoms: _329  and  _330
REMARK  143  A    between atoms: _332  and  _334
REMARK  144  A    between atoms: _334  and  _335
REMARK  145  A    between atoms: _334  and  _337
REMARK  146  A    between atoms: _337  and  _338
REMARK  147  A    between atoms: _343  and  _345
REMARK  148  A    between atoms: _345  and  _346
REMARK  149  A    between atoms: _348  and  _350
REMARK  150  A    between atoms: _350  and  _351
REMARK  151  A    between atoms: _350  and  _353
REMARK  152  A    between atoms: _353  and  _354
REMARK  153  A    between atoms: _354  and  _355
REMARK  154  A    between atoms: _357  and  _359
REMARK  155  A    between atoms: _359  and  _360
REMARK  156  A    between atoms: _359  and  _362
REMARK  157  A    between atoms: _362  and  _363
REMARK  158  A    between atoms: _369  and  _371
REMARK  159  A    between atoms: _371  and  _372
REMARK  160  A    between atoms: _371  and  _374
REMARK  161  A    between atoms: _374  and  _375
REMARK  162  A    between atoms: _378  and  _380
REMARK  163  A    between atoms: _380  and  _381
REMARK  164  A    between atoms: _380  and  _383
REMARK  165  A    between atoms: _383  and  _384
REMARK  166  A    between atoms: _384  and  _385
REMARK  167  A    between atoms: _385  and  _386
REMARK  168  A    between atoms: _386  and  _387
REMARK  169  A    between atoms: _391  and  _393
REMARK  170  A    between atoms: _393  and  _394
REMARK  171  A    between atoms: _393  and  _396
REMARK  172  A    between atoms: _398  and  _400
REMARK  173  A    between atoms: _400  and  _401
REMARK  174  A    between atoms: _400  and  _403
REMARK  175  A    between atoms: _403  and  _404
REMARK  176  A    between atoms: _407  and  _409
REMARK  177  A    between atoms: _409  and  _410
REMARK  178  A    between atoms: _409  and  _412
REMARK  179  A    between atoms: _412  and  _413
REMARK  180  A    between atoms: _418  and  _420
REMARK  181  A    between atoms: _420  and  _421
REMARK  182  A    between atoms: _420  and  _423
REMARK  183  A    between atoms: _423  and  _424
REMARK  184  A    between atoms: _424  and  _425
REMARK  185  A    between atoms: _425  and  _426
REMARK  186  A    between atoms: _435  and  _437
REMARK  187  A    between atoms: _437  and  _438
REMARK  188  A    between atoms: _437  and  _440
REMARK  189  A    between atoms: _440  and  _441
REMARK  190  A    between atoms: _444  and  _446
REMARK  191  A    between atoms: _446  and  _447
REMARK  192  A    between atoms: _446  and  _449
REMARK  193  A    between atoms: _449  and  _450
REMARK  194  A    between atoms: _455  and  _457
REMARK  195  A    between atoms: _457  and  _458
REMARK  196  A    between atoms: _457  and  _460
REMARK  197  A    between atoms: _460  and  _461
REMARK  198  A    between atoms: _464  and  _466
REMARK  199  A    between atoms: _466  and  _467
REMARK  200  A    between atoms: _466  and  _469
REMARK  201  A    between atoms: _469  and  _470
REMARK  202  A    between atoms: _473  and  _475
REMARK  203  A    between atoms: _475  and  _476
REMARK  204  A    between atoms: _475  and  _478
REMARK  205  A    between atoms: _478  and  _479
REMARK  206  A    between atoms: _481  and  _483
REMARK  207  A    between atoms: _483  and  _484
REMARK  208  A    between atoms: _483  and  _486
REMARK  209  A    between atoms: _486  and  _487
REMARK  210  A    between atoms: _487  and  _488
REMARK  211  A    between atoms: _488  and  _489
REMARK  212  A    between atoms: _489  and  _490
REMARK  213  A    between atoms: _494  and  _496
REMARK  214  A    between atoms: _496  and  _497
REMARK  215  A    between atoms: _496  and  _499
REMARK  216  A    between atoms: _499  and  _500
REMARK  217  A    between atoms: _503  and  _505
REMARK  218  A    between atoms: _505  and  _506
REMARK  219  A    between atoms: _505  and  _508
REMARK  220  A    between atoms: _510  and  _512
REMARK  221  A    between atoms: _512  and  _513
REMARK  222  A    between atoms: _512  and  _515
REMARK  223  A    between atoms: _515  and  _516
REMARK  224  A    between atoms: _519  and  _521
REMARK  225  A    between atoms: _521  and  _522
REMARK  226  A    between atoms: _521  and  _524
REMARK  227  A    between atoms: _524  and  _525
REMARK  228  A    between atoms: _531  and  _533
REMARK  229  A    between atoms: _533  and  _534
REMARK  230  A    between atoms: _536  and  _538
REMARK  231  A    between atoms: _538  and  _539
REMARK  232  A    between atoms: _538  and  _541
REMARK  233  A    between atoms: _541  and  _542
REMARK                            x       y       z     vdW  Elec       q    Type
REMARK                         _______ _______ _______ _____ _____    ______ ____
ROOT
ATOM      1  CB  ASN A   1      44.975  37.037  16.049  0.00  0.00    +0.110 C 
ENDROOT
BRANCH   1   2
ATOM      2  CG  ASN A   1      43.923  37.079  17.135  0.00  0.00    +0.221 C 
ATOM      3  ND2 ASN A   1      43.873  38.180  17.878  0.00  0.00    -0.329 N 
ATOM      4 HD21 ASN A   1      43.163  38.266  18.633  0.00  0.00    +0.145 HD
ATOM      5 HD22 ASN A   1      44.544  38.955  17.705  0.00  0.00    +0.145 HD
ATOM      6  OD1 ASN A   1      43.152  36.127  17.295  0.00  0.00    -0.275 OA
ENDBRANCH   1   2
BRANCH   1   7
ATOM      7  CA  ASN A   1      45.552  35.634  15.856  0.00  0.00    +0.142 C 
BRANCH   7   8
ATOM      8  N   ASN A   1      46.635  35.366  16.796  0.00  0.00    -0.239 NA
ATOM      9  H   ASN A   1      47.402  36.060  16.905  0.00  0.00    +0.142 HD
ENDBRANCH   7   8
BRANCH   7  10
ATOM     10  C   ASN A   1      45.948  35.454  14.413  0.00  0.00    +0.225 C 
ATOM     11  O   ASN A   1      45.306  36.002  13.517  0.00  0.00    -0.287 OA
ENDBRANCH   7  10
ENDBRANCH   1   7
TORSDOF 4
REMARK  Name = ../refined-set-2016/2qu6/2qu6_pocket.pdb
REMARK  233 active torsions:
REMARK  status: ('A' for Active; 'I' for Inactive)
REMARK    1  A    between atoms: _1  and  _3
REMARK    2  A    between atoms: _3  and  _4
REMARK    3  A    between atoms: _3  and  _6
REMARK    4  A    between atoms: _6  and  _7
REMARK    5  A    between atoms: _7  and  _8
REMARK    6  A    between atoms: _8  and  _9
REMARK    7  A    between atoms: _9  and  _10
REMARK    8  A    between atoms: _15  and  _16
REMARK    9  A    between atoms: _21  and  _23
REMARK   10  A    between atoms: _23  and  _24
REMARK   11  A    between atoms: _23  and  _26
REMARK   12  A    between atoms: _26  and  _27
REMARK   13  A    between atoms: _30  and  _32
REMARK   14  A    between atoms: _32  and  _33
REMARK   15  A    between atoms: _32  and  _35
REMARK   16  A    between atoms: _35  and  _36
REMARK   17  A    between atoms: _36  and  _37
REMARK   18  A    between atoms: _42  and  _44
REMARK   19  A    between atoms: _44  and  _45
REMARK   20  A    between atoms: _44  and  _47
REMARK   21  A    between atoms: _50  and  _52
REMARK   22  A    between atoms: _52  and  _53
REMARK   23  A    between atoms: _52  and  _55
REMARK   24  A    between atoms: _55  and  _56
REMARK   25  A    between atoms: _59  and  _61
REMARK   26  A    between atoms: _61  and  _62
REMARK   27  A    between atoms: _61  and  _64
REMARK   28  A    between atoms: _64  and  _65
REMARK   29  A    between atoms: _65  and  _66
REMARK   30  A    between atoms: _69  and  _71
REMARK   31  A    between atoms: _71  and  _72
REMARK   32  A    between atoms: _71  and  _74
REMARK   33  A    between atoms: _74  and  _75
REMARK   34  A    between atoms: _78  and  _80
REMARK   35  A    between atoms: _80  and  _81
REMARK   36  A    between atoms: _80  and  _83
REMARK   37  A    between atoms: _86  and  _88
REMARK   38  A    between atoms: _88  and  _89
REMARK   39  A    between atoms: _92  and  _94
REMARK   40  A    between atoms: _94  and  _95
REMARK   41  A    between atoms: _94  and  _97
REMARK   42  A    between atoms: _100  and  _102
REMARK   43  A    between atoms: _102  and  _103
REMARK   44  A    between atoms: _102  and  _105
REMARK   45  A    between atoms: _105  and  _106
REMARK   46  A    between atoms: _106  and  _107
REMARK   47  A    between atoms: _107  and  _108
REMARK   48  A    between atoms: _108  and  _109
REMARK   49  A    between atoms: _113  and  _115
REMARK   50  A    between atoms: _115  and  _116
REMARK   51  A    between atoms: _115  and  _118
REMARK   52  A    between atoms: _118  and  _119
REMARK   53  A    between atoms: _119  and  _120
REMARK   54  A    between atoms: _122  and  _124
REMARK   55  A    between atoms: _124  and  _125
REMARK   56  A    between atoms: _128  and  _130
REMARK   57  A    between atoms: _130  and  _131
REMARK   58  A    between atoms: _130  and  _133
REMARK   59  A    between atoms: _133  and  _134
REMARK   60  A    between atoms: _137  and  _139
REMARK   61  A    between atoms: _139  and  _140
REMARK   62  A    between atoms: _139  and  _142
REMARK   63  A    between atoms: _142  and  _143
REMARK   64  A    between atoms: _145  and  _147
REMARK   65  A    between atoms: _147  and  _148
REMARK   66  A    between atoms: _147  and  _150
REMARK   67  A    between atoms: _150  and  _151
REMARK   68  A    between atoms: _151  and  _152
REMARK   69  A    between atoms: _155  and  _157
REMARK   70  A    between atoms: _157  and  _158
REMARK   71  A    between atoms: _157  and  _160
REMARK   72  A    between atoms: _160  and  _161
REMARK   73  A    between atoms: _164  and  _166
REMARK   74  A    between atoms: _166  and  _167
REMARK   75  A    between atoms: _166  and  _169
REMARK   76  A    between atoms: _169  and  _170
REMARK   77  A    between atoms: _173  and  _175
REMARK   78  A    between atoms: _175  and  _176
REMARK   79  A    between atoms: _175  and  _178
REMARK   80  A    between atoms: _178  and  _179
REMARK   81  A    between atoms: _182  and  _184
REMARK   82  A    between atoms: _184  and  _185
REMARK   83  A    between atoms: _184  and  _187
REMARK   84  A    between atoms: _187  and  _188
REMARK   85  A    between atoms: _191  and  _193
REMARK   86  A    between atoms: _193  and  _194
REMARK   87  A    between atoms: _193  and  _196
REMARK   88  A    between atoms: _196  and  _197
REMARK   89  A    between atoms: _202  and  _204
REMARK   90  A    between atoms: _204  and  _205
REMARK   91  A    between atoms: _204  and  _207
REMARK   92  A    between atoms: _210  and  _212
REMARK   93  A    between atoms: _212  and  _213
REMARK   94  A    between atoms: _212  and  _215
REMARK   95  A    between atoms: _218  and  _220
REMARK   96  A    between atoms: _220  and  _221
REMARK   97  A    between atoms: _220  and  _223
REMARK   98  A    between atoms: _223  and  _224
REMARK   99  A    between atoms: _229  and  _231
REMARK  100  A    between atoms: _231  and  _232
REMARK  101  A    between atoms: _231  and  _234
REMARK  102  A    between atoms: _234  and  _235
REMARK  103  A    between atoms: _238  and  _240
REMARK  104  A    between atoms: _240  and  _241
REMARK  105  A    between atoms: _240  and  _243
REMARK  106  A    between atoms: _243  and  _244
REMARK  107  A    between atoms: _247  and  _249
REMARK  108  A    between atoms: _249  and  _250
REMARK  109  A    between atoms: _249  and  _252
REMARK  110  A    between atoms: _255  and  _257
REMARK  111  A    between atoms: _257  and  _258
REMARK  112  A    between atoms: _257  and  _260
REMARK  113  A    between atoms: _260  and  _261
REMARK  114  A    between atoms: _264  and  _266
REMARK  115  A    between atoms: _266  and  _267
REMARK  116  A    between atoms: _266  and  _269
REMARK  117  A    between atoms: _269  and  _270
REMARK  118  A    between atoms: _273  and  _275
REMARK  119  A    between atoms: _275  and  _276
REMARK  120  A    between atoms: _275  and  _278
REMARK  121  A    between atoms: _278  and  _279
REMARK  122  A    between atoms: _279  and  _280
REMARK  123  A    between atoms: _283  and  _285
REMARK  124  A    between atoms: _285  and  _286
REMARK  125  A    between atoms: _285  and  _288
REMARK  126  A    between atoms: _288  and  _289
REMARK  127  A    between atoms: _295  and  _297
REMARK  128  A    between atoms: _297  and  _298
REMARK  129  A    between atoms: _297  and  _300
REMARK  130  A    between atoms: _302  and  _304
REMARK  131  A    between atoms: _304  and  _305
REMARK  132  A    between atoms: _304  and  _307
REMARK  133  A    between atoms: _307  and  _308
REMARK  134  A    between atoms: _308  and  _309
REMARK  135  A    between atoms: _309  and  _310
REMARK  136  A    between atoms: _310  and  _311
REMARK  137  A    between atoms: _315  and  _317
REMARK  138  A    between atoms: _317  and  _318
REMARK  139  A    between atoms: _317  and  _320
REMARK  140  A    between atoms: _320  and  _321
REMARK  141  A    between atoms: _327  and  _329
REMARK  142  A    between atoms: _329  and  _330
REMARK  143  A    between atoms: _332  and  _334
REMARK  144  A    between atoms: _334  and  _335
REMARK  145  A    between atoms: _334  and  _337
REMARK  146  A    between atoms: _337  and  _338
REMARK  147  A    between atoms: _343  and  _345
REMARK  148  A    between atoms: _345  and  _346
REMARK  149  A    between atoms: _348  and  _350
REMARK  150  A    between atoms: _350  and  _351
REMARK  151  A    between atoms: _350  and  _353
REMARK  152  A    between atoms: _353  and  _354
REMARK  153  A    between atoms: _354  and  _355
REMARK  154  A    between atoms: _357  and  _359
REMARK  155  A    between atoms: _359  and  _360
REMARK  156  A    between atoms: _359  and  _362
REMARK  157  A    between atoms: _362  and  _363
REMARK  158  A    between atoms: _369  and  _371
REMARK  159  A    between atoms: _371  and  _372
REMARK  160  A    between atoms: _371  and  _374
REMARK  161  A    between atoms: _374  and  _375
REMARK  162  A    between atoms: _378  and  _380
REMARK  163  A    between atoms: _380  and  _381
REMARK  164  A    between atoms: _380  and  _383
REMARK  165  A    between atoms: _383  and  _384
REMARK  166  A    between atoms: _384  and  _385
REMARK  167  A    between atoms: _385  and  _386
REMARK  168  A    between atoms: _386  and  _387
REMARK  169  A    between atoms: _391  and  _393
REMARK  170  A    between atoms: _393  and  _394
REMARK  171  A    between atoms: _393  and  _396
REMARK  172  A    between atoms: _398  and  _400
REMARK  173  A    between atoms: _400  and  _401
REMARK  174  A    between atoms: _400  and  _403
REMARK  175  A    between atoms: _403  and  _404
REMARK  176  A    between atoms: _407  and  _409
REMARK  177  A    between atoms: _409  and  _410
REMARK  178  A    between atoms: _409  and  _412
REMARK  179  A    between atoms: _412  and  _413
REMARK  180  A    between atoms: _418  and  _420
REMARK  181  A    between atoms: _420  and  _421
REMARK  182  A    between atoms: _420  and  _423
REMARK  183  A    between atoms: _423  and  _424
REMARK  184  A    between atoms: _424  and  _425
REMARK  185  A    between atoms: _425  and  _426
REMARK  186  A    between atoms: _435  and  _437
REMARK  187  A    between atoms: _437  and  _438
REMARK  188  A    between atoms: _437  and  _440
REMARK  189  A    between atoms: _440  and  _441
REMARK  190  A    between atoms: _444  and  _446
REMARK  191  A    between atoms: _446  and  _447
REMARK  192  A    between atoms: _446  and  _449
REMARK  193  A    between atoms: _449  and  _450
REMARK  194  A    between atoms: _455  and  _457
REMARK  195  A    between atoms: _457  and  _458
REMARK  196  A    between atoms: _457  and  _460
REMARK  197  A    between atoms: _460  and  _461
REMARK  198  A    between atoms: _464  and  _466
REMARK  199  A    between atoms: _466  and  _467
REMARK  200  A    between atoms: _466  and  _469
REMARK  201  A    between atoms: _469  and  _470
REMARK  202  A    between atoms: _473  and  _475
REMARK  203  A    between atoms: _475  and  _476
REMARK  204  A    between atoms: _475  and  _478
REMARK  205  A    between atoms: _478  and  _479
REMARK  206  A    between atoms: _481  and  _483
REMARK  207  A    between atoms: _483  and  _484
REMARK  208  A    between atoms: _483  and  _486
REMARK  209  A    between atoms: _486  and  _487
REMARK  210  A    between atoms: _487  and  _488
REMARK  211  A    between atoms: _488  and  _489
REMARK  212  A    between atoms: _489  and  _490
REMARK  213  A    between atoms: _494  and  _496
REMARK  214  A    between atoms: _496  and  _497
REMARK  215  A    between atoms: _496  and  _499
REMARK  216  A    between atoms: _499  and  _500
REMARK  217  A    between atoms: _503  and  _505
REMARK  218  A    between atoms: _505  and  _506
REMARK  219  A    between atoms: _505  and  _508
REMARK  220  A    between atoms: _510  and  _512
REMARK  221  A    between atoms: _512  and  _513
REMARK  222  A    between atoms: _512  and  _515
REMARK  223  A    between atoms: _515  and  _516
REMARK  224  A    between atoms: _519  and  _521
REMARK  225  A    between atoms: _521  and  _522
REMARK  226  A    between atoms: _521  and  _524
REMARK  227  A    between atoms: _524  and  _525
REMARK  228  A    between atoms: _531  and  _533
REMARK  229  A    between atoms: _533  and  _534
REMARK  230  A    between atoms: _536  and  _538
REMARK  231  A    between atoms: _538  and  _539
REMARK  232  A    between atoms: _538  and  _541
REMARK  233  A    between atoms: _541  and  _542
REMARK                            x       y       z     vdW  Elec       q    Type
REMARK                         _______ _______ _______ _____ _____    ______ ____
ROOT
ATOM      1  CA  LEU A   2      48.576  28.542   9.420  0.00  0.00    +0.149 C 
ENDROOT
BRANCH   1   3
ATOM      2  C   LEU A   1      47.361  30.410  10.360  0.00  0.00    +0.238 C 
ATOM      3  N   LEU A   2      47.771  29.149  10.474  0.00  0.00    -0.297 N 
ATOM      4  H   LEU A   2      47.517  28.595  11.317  0.00  0.00    +0.150 HD
ATOM      5  O   LEU A   1      47.616  31.118   9.377  0.00  0.00    -0.274 OA
BRANCH   2   6
ATOM      6  CA  LEU A   1      46.538  30.955  11.507  0.00  0.00    +0.145 C 
BRANCH   6   7
ATOM      7  N   LEU A   1      46.760  32.382  11.680  0.00  0.00    -0.238 NA
ATOM      8  H   LEU A   1      46.462  33.038  10.931  0.00  0.00    +0.142 HD
ENDBRANCH   6   7
BRANCH   6   9
ATOM      9  CB  LEU A   1      45.052  30.681  11.239  0.00  0.00    +0.026 C 
BRANCH   9  10
ATOM     10  CG  LEU A   1      44.086  31.249  12.279  0.00  0.00    +0.002 C 
ATOM     11  CD2 LEU A   1      44.430  30.695  13.638  0.00  0.00    +0.000 C 
ATOM     12  CD1 LEU A   1      42.659  30.884  11.922  0.00  0.00    +0.000 C 
ENDBRANCH   9  10
ENDBRANCH   6   9
ENDBRANCH   2   6
ENDBRANCH   1   3
BRANCH   1  13
ATOM     13  C   LEU A   2      47.819  27.439   8.684  0.00  0.00    +0.241 C 
ATOM     14  O   LEU A   2      47.339  26.470   9.282  0.00  0.00    -0.273 OA
ATOM     15  N   SER A   3      47.707  27.607   7.374  0.00  0.00    -0.296 N 
ATOM     16  H   SER A   3      48.130  28.447   6.931  0.00  0.00    +0.150 HD
BRANCH  15  17
ATOM     17  CA  SER A   3      47.007  26.644   6.544  0.00  0.00    +0.166 C 
BRANCH  17  18
ATOM     18  CB  SER A   3      48.002  25.829   5.714  0.00  0.00    +0.229 C 
ATOM     19  OG  SER A   3      49.213  25.851   5.975  0.00  0.00    -0.286 OA
ENDBRANCH  17  18
BRANCH  17  20
ATOM     20  C   SER A   3      46.037  27.390   5.628  0.00  0.00    +0.165 C 
BRANCH  20  21
ATOM     21  O   SER A   3      45.303  26.492   4.820  0.00  0.00    -0.380 OA
ATOM     22  H   SER A   3      44.784  25.879   5.398  0.00  0.00    +0.211 HD
ENDBRANCH  20  21
ENDBRANCH  17  20
ENDBRANCH  15  17
ENDBRANCH   1  13
BRANCH   1  23
ATOM     23  CB  LEU A   2      49.884  27.999  10.000  0.00  0.00    +0.029 C 
BRANCH  23  24
ATOM     24  CG  LEU A   2      50.809  27.235   9.054  0.00  0.00    +0.002 C 
ATOM     25  CD2 LEU A   2      52.010  26.742   9.831  0.00  0.00    +0.000 C 
ATOM     26  CD1 LEU A   2      51.259  28.125   7.905  0.00  0.00    +0.000 C 
ENDBRANCH  23  24
ENDBRANCH   1  23
TORSDOF 12
REMARK  Name = ../refined-set-2016/2qu6/2qu6_pocket.pdb
REMARK  233 active torsions:
REMARK  status: ('A' for Active; 'I' for Inactive)
REMARK    1  A    between atoms: _1  and  _3
REMARK    2  A    between atoms: _3  and  _4
REMARK    3  A    between atoms: _3  and  _6
REMARK    4  A    between atoms: _6  and  _7
REMARK    5  A    between atoms: _7  and  _8
REMARK    6  A    between atoms: _8  and  _9
REMARK    7  A    between atoms: _9  and  _10
REMARK    8  A    between atoms: _15  and  _16
REMARK    9  A    between atoms: _21  and  _23
REMARK   10  A    between atoms: _23  and  _24
REMARK   11  A    between atoms: _23  and  _26
REMARK   12  A    between atoms: _26  and  _27
REMARK   13  A    between atoms: _30  and  _32
REMARK   14  A    between atoms: _32  and  _33
REMARK   15  A    between atoms: _32  and  _35
REMARK   16  A    between atoms: _35  and  _36
REMARK   17  A    between atoms: _36  and  _37
REMARK   18  A    between atoms: _42  and  _44
REMARK   19  A    between atoms: _44  and  _45
REMARK   20  A    between atoms: _44  and  _47
REMARK   21  A    between atoms: _50  and  _52
REMARK   22  A    between atoms: _52  and  _53
REMARK   23  A    between atoms: _52  and  _55
REMARK   24  A    between atoms: _55  and  _56
REMARK   25  A    between atoms: _59  and  _61
REMARK   26  A    between atoms: _61  and  _62
REMARK   27  A    between atoms: _61  and  _64
REMARK   28  A    between atoms: _64  and  _65
REMARK   29  A    between atoms: _65  and  _66
REMARK   30  A    between atoms: _69  and  _71
REMARK   31  A    between atoms: _71  and  _72
REMARK   32  A    between atoms: _71  and  _74
REMARK   33  A    between atoms: _74  and  _75
REMARK   34  A    between atoms: _78  and  _80
REMARK   35  A    between atoms: _80  and  _81
REMARK   36  A    between atoms: _80  and  _83
REMARK   37  A    between atoms: _86  and  _88
REMARK   38  A    between atoms: _88  and  _89
REMARK   39  A    between atoms: _92  and  _94
REMARK   40  A    between atoms: _94  and  _95
REMARK   41  A    between atoms: _94  and  _97
REMARK   42  A    between atoms: _100  and  _102
REMARK   43  A    between atoms: _102  and  _103
REMARK   44  A    between atoms: _102  and  _105
REMARK   45  A    between atoms: _105  and  _106
REMARK   46  A    between atoms: _106  and  _107
REMARK   47  A    between atoms: _107  and  _108
REMARK   48  A    between atoms: _108  and  _109
REMARK   49  A    between atoms: _113  and  _115
REMARK   50  A    between atoms: _115  and  _116
REMARK   51  A    between atoms: _115  and  _118
REMARK   52  A    between atoms: _118  and  _119
REMARK   53  A    between atoms: _119  and  _120
REMARK   54  A    between atoms: _122  and  _124
REMARK   55  A    between atoms: _124  and  _125
REMARK   56  A    between atoms: _128  and  _130
REMARK   57  A    between atoms: _130  and  _131
REMARK   58  A    between atoms: _130  and  _133
REMARK   59  A    between atoms: _133  and  _134
REMARK   60  A    between atoms: _137  and  _139
REMARK   61  A    between atoms: _139  and  _140
REMARK   62  A    between atoms: _139  and  _142
REMARK   63  A    between atoms: _142  and  _143
REMARK   64  A    between atoms: _145  and  _147
REMARK   65  A    between atoms: _147  and  _148
REMARK   66  A    between atoms: _147  and  _150
REMARK   67  A    between atoms: _150  and  _151
REMARK   68  A    between atoms: _151  and  _152
REMARK   69  A    between atoms: _155  and  _157
REMARK   70  A    between atoms: _157  and  _158
REMARK   71  A    between atoms: _157  and  _160
REMARK   72  A    between atoms: _160  and  _161
REMARK   73  A    between atoms: _164  and  _166
REMARK   74  A    between atoms: _166  and  _167
REMARK   75  A    between atoms: _166  and  _169
REMARK   76  A    between atoms: _169  and  _170
REMARK   77  A    between atoms: _173  and  _175
REMARK   78  A    between atoms: _175  and  _176
REMARK   79  A    between atoms: _175  and  _178
REMARK   80  A    between atoms: _178  and  _179
REMARK   81  A    between atoms: _182  and  _184
REMARK   82  A    between atoms: _184  and  _185
REMARK   83  A    between atoms: _184  and  _187
REMARK   84  A    between atoms: _187  and  _188
REMARK   85  A    between atoms: _191  and  _193
REMARK   86  A    between atoms: _193  and  _194
REMARK   87  A    between atoms: _193  and  _196
REMARK   88  A    between atoms: _196  and  _197
REMARK   89  A    between atoms: _202  and  _204
REMARK   90  A    between atoms: _204  and  _205
REMARK   91  A    between atoms: _204  and  _207
REMARK   92  A    between atoms: _210  and  _212
REMARK   93  A    between atoms: _212  and  _213
REMARK   94  A    between atoms: _212  and  _215
REMARK   95  A    between atoms: _218  and  _220
REMARK   96  A    between atoms: _220  and  _221
REMARK   97  A    between atoms: _220  and  _223
REMARK   98  A    between atoms: _223  and  _224
REMARK   99  A    between atoms: _229  and  _231
REMARK  100  A    between atoms: _231  and  _232
REMARK  101  A    between atoms: _231  and  _234
REMARK  102  A    between atoms: _234  and  _235
REMARK  103  A    between atoms: _238  and  _240
REMARK  104  A    between atoms: _240  and  _241
REMARK  105  A    between atoms: _240  and  _243
REMARK  106  A    between atoms: _243  and  _244
REMARK  107  A    between atoms: _247  and  _249
REMARK  108  A    between atoms: _249  and  _250
REMARK  109  A    between atoms: _249  and  _252
REMARK  110  A    between atoms: _255  and  _257
REMARK  111  A    between atoms: _257  and  _258
REMARK  112  A    between atoms: _257  and  _260
REMARK  113  A    between atoms: _260  and  _261
REMARK  114  A    between atoms: _264  and  _266
REMARK  115  A    between atoms: _266  and  _267
REMARK  116  A    between atoms: _266  and  _269
REMARK  117  A    between atoms: _269  and  _270
REMARK  118  A    between atoms: _273  and  _275
REMARK  119  A    between atoms: _275  and  _276
REMARK  120  A    between atoms: _275  and  _278
REMARK  121  A    between atoms: _278  and  _279
REMARK  122  A    between atoms: _279  and  _280
REMARK  123  A    between atoms: _283  and  _285
REMARK  124  A    between atoms: _285  and  _286
REMARK  125  A    between atoms: _285  and  _288
REMARK  126  A    between atoms: _288  and  _289
REMARK  127  A    between atoms: _295  and  _297
REMARK  128  A    between atoms: _297  and  _298
REMARK  129  A    between atoms: _297  and  _300
REMARK  130  A    between atoms: _302  and  _304
REMARK  131  A    between atoms: _304  and  _305
REMARK  132  A    between atoms: _304  and  _307
REMARK  133  A    between atoms: _307  and  _308
REMARK  134  A    between atoms: _308  and  _309
REMARK  135  A    between atoms: _309  and  _310
REMARK  136  A    between atoms: _310  and  _311
REMARK  137  A    between atoms: _315  and  _317
REMARK  138  A    between atoms: _317  and  _318
REMARK  139  A    between atoms: _317  and  _320
REMARK  140  A    between atoms: _320  and  _321
REMARK  141  A    between atoms: _327  and  _329
REMARK  142  A    between atoms: _329  and  _330
REMARK  143  A    between atoms: _332  and  _334
REMARK  144  A    between atoms: _334  and  _335
REMARK  145  A    between atoms: _334  and  _337
REMARK  146  A    between atoms: _337  and  _338
REMARK  147  A    between atoms: _343  and  _345
REMARK  148  A    between atoms: _345  and  _346
REMARK  149  A    between atoms: _348  and  _350
REMARK  150  A    between atoms: _350  and  _351
REMARK  151  A    between atoms: _350  and  _353
REMARK  152  A    between atoms: _353  and  _354
REMARK  153  A    between atoms: _354  and  _355
REMARK  154  A    between atoms: _357  and  _359
REMARK  155  A    between atoms: _359  and  _360
REMARK  156  A    between atoms: _359  and  _362
REMARK  157  A    between atoms: _362  and  _363
REMARK  158  A    between atoms: _369  and  _371
REMARK  159  A    between atoms: _371  and  _372
REMARK  160  A    between atoms: _371  and  _374
REMARK  161  A    between atoms: _374  and  _375
REMARK  162  A    between atoms: _378  and  _380
REMARK  163  A    between atoms: _380  and  _381
REMARK  164  A    between atoms: _380  and  _383
REMARK  165  A    between atoms: _383  and  _384
REMARK  166  A    between atoms: _384  and  _385
REMARK  167  A    between atoms: _385  and  _386
REMARK  168  A    between atoms: _386  and  _387
REMARK  169  A    between atoms: _391  and  _393
REMARK  170  A    between atoms: _393  and  _394
REMARK  171  A    between atoms: _393  and  _396
REMARK  172  A    between atoms: _398  and  _400
REMARK  173  A    between atoms: _400  and  _401
REMARK  174  A    between atoms: _400  and  _403
REMARK  175  A    between atoms: _403  and  _404
REMARK  176  A    between atoms: _407  and  _409
REMARK  177  A    between atoms: _409  and  _410
REMARK  178  A    between atoms: _409  and  _412
REMARK  179  A    between atoms: _412  and  _413
REMARK  180  A    between atoms: _418  and  _420
REMARK  181  A    between atoms: _420  and  _421
REMARK  182  A    between atoms: _420  and  _423
REMARK  183  A    between atoms: _423  and  _424
REMARK  184  A    between atoms: _424  and  _425
REMARK  185  A    between atoms: _425  and  _426
REMARK  186  A    between atoms: _435  and  _437
REMARK  187  A    between atoms: _437  and  _438
REMARK  188  A    between atoms: _437  and  _440
REMARK  189  A    between atoms: _440  and  _441
REMARK  190  A    between atoms: _444  and  _446
REMARK  191  A    between atoms: _446  and  _447
REMARK  192  A    between atoms: _446  and  _449
REMARK  193  A    between atoms: _449  and  _450
REMARK  194  A    between atoms: _455  and  _457
REMARK  195  A    between atoms: _457  and  _458
REMARK  196  A    between atoms: _457  and  _460
REMARK  197  A    between atoms: _460  and  _461
REMARK  198  A    between atoms: _464  and  _466
REMARK  199  A    between atoms: _466  and  _467
REMARK  200  A    between atoms: _466  and  _469
REMARK  201  A    between atoms: _469  and  _470
REMARK  202  A    between atoms: _473  and  _475
REMARK  203  A    between atoms: _475  and  _476
REMARK  204  A    between atoms: _475  and  _478
REMARK  205  A    between atoms: _478  and  _479
REMARK  206  A    between atoms: _481  and  _483
REMARK  207  A    between atoms: _483  and  _484
REMARK  208  A    between atoms: _483  and  _486
REMARK  209  A    between atoms: _486  and  _487
REMARK  210  A    between atoms: _487  and  _488
REMARK  211  A    between atoms: _488  and  _489
REMARK  212  A    between atoms: _489  and  _490
REMARK  213  A    between atoms: _494  and  _496
REMARK  214  A    between atoms: _496  and  _497
REMARK  215  A    between atoms: _496  and  _499
REMARK  216  A    between atoms: _499  and  _500
REMARK  217  A    between atoms: _503  and  _505
REMARK  218  A    between atoms: _505  and  _506
REMARK  219  A    between atoms: _505  and  _508
REMARK  220  A    between atoms: _510  and  _512
REMARK  221  A    between atoms: _512  and  _513
REMARK  222  A    between atoms: _512  and  _515
REMARK  223  A    between atoms: _515  and  _516
REMARK  224  A    between atoms: _519  and  _521
REMARK  225  A    between atoms: _521  and  _522
REMARK  226  A    between atoms: _521  and  _524
REMARK  227  A    between atoms: _524  and  _525
REMARK  228  A    between atoms: _531  and  _533
REMARK  229  A    between atoms: _533  and  _534
REMARK  230  A    between atoms: _536  and  _538
REMARK  231  A    between atoms: _538  and  _539
REMARK  232  A    between atoms: _538  and  _541
REMARK  233  A    between atoms: _541  and  _542
REMARK                            x       y       z     vdW  Elec       q    Type
REMARK                         _______ _______ _______ _____ _____    ______ ____
ROOT
ATOM      1  C   CYS A   3      41.612  36.847  13.289  0.00  0.00    +0.242 C 
ATOM      2  N   ASP A   4      40.508  36.580  13.975  0.00  0.00    -0.297 N 
ATOM      3  H   ASP A   4      39.836  35.875  13.610  0.00  0.00    +0.150 HD
ATOM      4  O   CYS A   3      42.401  37.728  13.620  0.00  0.00    -0.273 OA
ENDROOT
BRANCH   2   5
ATOM      5  CA  ASP A   4      40.223  37.259  15.232  0.00  0.00    +0.160 C 
BRANCH   5   6
ATOM      6  C   ASP A   4      39.294  36.383  16.061  0.00  0.00    +0.241 C 
ATOM      7  N   PHE A   5      39.845  35.724  17.072  0.00  0.00    -0.297 N 
ATOM      8  H   PHE A   5      40.863  35.825  17.260  0.00  0.00    +0.150 HD
ATOM      9  O   ASP A   4      38.105  36.288  15.783  0.00  0.00    -0.273 OA
BRANCH   7  10
ATOM     10  CA  PHE A   5      39.034  34.859  17.922  0.00  0.00    +0.153 C 
BRANCH  10  11
ATOM     11  C   PHE A   5      38.079  35.619  18.839  0.00  0.00    +0.241 C 
ATOM     12  O   PHE A   5      37.087  35.058  19.305  0.00  0.00    -0.273 OA
ATOM     13  N   GLY A   6      38.376  36.892  19.086  0.00  0.00    -0.296 N 
ATOM     14  H   GLY A   6      39.221  37.313  18.650  0.00  0.00    +0.150 HD
BRANCH  13  15
ATOM     15  CA  GLY A   6      37.541  37.707  19.955  0.00  0.00    +0.163 C 
BRANCH  15  16
ATOM     16  C   GLY A   6      36.055  37.678  19.642  0.00  0.00    +0.229 C 
ATOM     17  O   GLY A   6      35.580  38.343  18.715  0.00  0.00    -0.286 OA
ENDBRANCH  15  16
ENDBRANCH  13  15
ENDBRANCH  10  11
BRANCH  10  18
ATOM     18  CB  PHE A   5      39.926  33.952  18.768  0.00  0.00    +0.055 C 
BRANCH  18  19
ATOM     19  CG  PHE A   5      40.587  32.865  17.989  0.00  0.00    -0.020 A 
ATOM     20  CD2 PHE A   5      39.994  31.616  17.883  0.00  0.00    -0.004 A 
ATOM     21  CE2 PHE A   5      40.604  30.601  17.158  0.00  0.00    -0.000 A 
ATOM     22  CZ  PHE A   5      41.817  30.834  16.532  0.00  0.00    -0.000 A 
ATOM     23  CE1 PHE A   5      42.417  32.079  16.628  0.00  0.00    -0.000 A 
ATOM     24  CD1 PHE A   5      41.801  33.086  17.355  0.00  0.00    -0.004 A 
ENDBRANCH  18  19
ENDBRANCH  10  18
ENDBRANCH   7  10
ENDBRANCH   5   6
BRANCH   5  25
ATOM     25  CB  ASP A   4      39.582  38.630  14.998  0.00  0.00    +0.143 C 
BRANCH  25  26
ATOM     26  CG  ASP A   4      39.443  39.431  16.286  0.00  0.00    +0.367 C 
ATOM     27  OD2 ASP A   4      39.764  38.879  17.358  0.00  0.00    -0.246 OA
ATOM     28  OD1 ASP A   4      39.019  40.600  16.234  0.00  0.00    -0.246 OA
ENDBRANCH  25  26
ENDBRANCH   5  25
ENDBRANCH   2   5
BRANCH   1  29
ATOM     29  CA  CYS A   3      41.842  36.046  12.017  0.00  0.00    +0.160 C 
BRANCH  29  31
ATOM     30  C   ILE A   2      43.362  36.619  10.260  0.00  0.00    +0.241 C 
ATOM     31  N   CYS A   3      43.179  36.325  11.538  0.00  0.00    -0.296 N 
ATOM     32  H   CYS A   3      43.988  36.295  12.191  0.00  0.00    +0.150 HD
ATOM     33  O   ILE A   2      42.434  36.620   9.449  0.00  0.00    -0.273 OA
BRANCH  30  34
ATOM     34  CA  ILE A   2      44.788  36.936   9.818  0.00  0.00    +0.148 C 
BRANCH  34  37
ATOM     35  C   LYS A   1      45.505  34.830   8.850  0.00  0.00    +0.238 C 
ATOM     36  O   LYS A   1      45.615  34.297   9.953  0.00  0.00    -0.274 OA
ATOM     37  N   ILE A   2      45.125  36.091   8.686  0.00  0.00    -0.297 N 
ATOM     38  H   ILE A   2      45.067  36.483   7.724  0.00  0.00    +0.150 HD
BRANCH  35  39
ATOM     39  CA  LYS A   1      45.797  34.059   7.573  0.00  0.00    +0.145 C 
BRANCH  39  40
ATOM     40  N   LYS A   1      46.977  33.220   7.646  0.00  0.00    -0.238 NA
ATOM     41  H   LYS A   1      47.106  32.584   8.458  0.00  0.00    +0.142 HD
ENDBRANCH  39  40
BRANCH  39  42
ATOM     42  CB  LYS A   1      44.594  33.190   7.216  0.00  0.00    +0.026 C 
BRANCH  42  43
ATOM     43  CG  LYS A   1      44.773  32.407   5.904  0.00  0.00    -0.000 C 
BRANCH  43  44
ATOM     44  CD  LYS A   1      43.706  31.350   5.729  0.00  0.00    -0.024 C 
BRANCH  44  45
ATOM     45  CE  LYS A   1      43.907  30.568   4.433  0.00  0.00    -0.086 C 
BRANCH  45  46
ATOM     46  NZ  LYS A   1      43.826  31.457   3.243  0.00  0.00    +0.380 N 
ATOM     47  HZ1 LYS A   1      44.564  32.187   3.306  0.00  0.00    -0.089 HD
ATOM     48  HZ2 LYS A   1      42.890  31.910   3.213  0.00  0.00    -0.089 HD
ATOM     49  HZ3 LYS A   1      43.967  30.893   2.380  0.00  0.00    -0.089 HD
ENDBRANCH  45  46
ENDBRANCH  44  45
ENDBRANCH  43  44
ENDBRANCH  42  43
ENDBRANCH  39  42
ENDBRANCH  35  39
ENDBRANCH  34  37
BRANCH  34  50
ATOM     50  CB  ILE A   2      44.854  38.424   9.436  0.00  0.00    +0.027 C 
ATOM     51  CG2 ILE A   2      44.391  39.268  10.600  0.00  0.00    +0.002 C 
BRANCH  50  52
ATOM     52  CG1 ILE A   2      46.285  38.805   9.030  0.00  0.00    +0.002 C 
ATOM     53  CD1 ILE A   2      46.381  40.134   8.291  0.00  0.00    +0.000 C 
ENDBRANCH  50  52
ENDBRANCH  34  50
ENDBRANCH  30  34
ENDBRANCH  29  31
BRANCH  29  54
ATOM     54  CB  CYS A   3      41.676  34.547  12.276  0.00  0.00    +0.098 C 
ATOM     55  SG  CYS A   3      42.441  33.943  13.792  0.00  0.00    -0.080 S 
ENDBRANCH  29  54
ENDBRANCH   1  29
TORSDOF 24
REMARK  Name = ../refined-set-2016/2qu6/2qu6_pocket.pdb
REMARK  233 active torsions:
REMARK  status: ('A' for Active; 'I' for Inactive)
REMARK    1  A    between atoms: _1  and  _3
REMARK    2  A    between atoms: _3  and  _4
REMARK    3  A    between atoms: _3  and  _6
REMARK    4  A    between atoms: _6  and  _7
REMARK    5  A    between atoms: _7  and  _8
REMARK    6  A    between atoms: _8  and  _9
REMARK    7  A    between atoms: _9  and  _10
REMARK    8  A    between atoms: _15  and  _16
REMARK    9  A    between atoms: _21  and  _23
REMARK   10  A    between atoms: _23  and  _24
REMARK   11  A    between atoms: _23  and  _26
REMARK   12  A    between atoms: _26  and  _27
REMARK   13  A    between atoms: _30  and  _32
REMARK   14  A    between atoms: _32  and  _33
REMARK   15  A    between atoms: _32  and  _35
REMARK   16  A    between atoms: _35  and  _36
REMARK   17  A    between atoms: _36  and  _37
REMARK   18  A    between atoms: _42  and  _44
REMARK   19  A    between atoms: _44  and  _45
REMARK   20  A    between atoms: _44  and  _47
REMARK   21  A    between atoms: _50  and  _52
REMARK   22  A    between atoms: _52  and  _53
REMARK   23  A    between atoms: _52  and  _55
REMARK   24  A    between atoms: _55  and  _56
REMARK   25  A    between atoms: _59  and  _61
REMARK   26  A    between atoms: _61  and  _62
REMARK   27  A    between atoms: _61  and  _64
REMARK   28  A    between atoms: _64  and  _65
REMARK   29  A    between atoms: _65  and  _66
REMARK   30  A    between atoms: _69  and  _71
REMARK   31  A    between atoms: _71  and  _72
REMARK   32  A    between atoms: _71  and  _74
REMARK   33  A    between atoms: _74  and  _75
REMARK   34  A    between atoms: _78  and  _80
REMARK   35  A    between atoms: _80  and  _81
REMARK   36  A    between atoms: _80  and  _83
REMARK   37  A    between atoms: _86  and  _88
REMARK   38  A    between atoms: _88  and  _89
REMARK   39  A    between atoms: _92  and  _94
REMARK   40  A    between atoms: _94  and  _95
REMARK   41  A    between atoms: _94  and  _97
REMARK   42  A    between atoms: _100  and  _102
REMARK   43  A    between atoms: _102  and  _103
REMARK   44  A    between atoms: _102  and  _105
REMARK   45  A    between atoms: _105  and  _106
REMARK   46  A    between atoms: _106  and  _107
REMARK   47  A    between atoms: _107  and  _108
REMARK   48  A    between atoms: _108  and  _109
REMARK   49  A    between atoms: _113  and  _115
REMARK   50  A    between atoms: _115  and  _116
REMARK   51  A    between atoms: _115  and  _118
REMARK   52  A    between atoms: _118  and  _119
REMARK   53  A    between atoms: _119  and  _120
REMARK   54  A    between atoms: _122  and  _124
REMARK   55  A    between atoms: _124  and  _125
REMARK   56  A    between atoms: _128  and  _130
REMARK   57  A    between atoms: _130  and  _131
REMARK   58  A    between atoms: _130  and  _133
REMARK   59  A    between atoms: _133  and  _134
REMARK   60  A    between atoms: _137  and  _139
REMARK   61  A    between atoms: _139  and  _140
REMARK   62  A    between atoms: _139  and  _142
REMARK   63  A    between atoms: _142  and  _143
REMARK   64  A    between atoms: _145  and  _147
REMARK   65  A    between atoms: _147  and  _148
REMARK   66  A    between atoms: _147  and  _150
REMARK   67  A    between atoms: _150  and  _151
REMARK   68  A    between atoms: _151  and  _152
REMARK   69  A    between atoms: _155  and  _157
REMARK   70  A    between atoms: _157  and  _158
REMARK   71  A    between atoms: _157  and  _160
REMARK   72  A    between atoms: _160  and  _161
REMARK   73  A    between atoms: _164  and  _166
REMARK   74  A    between atoms: _166  and  _167
REMARK   75  A    between atoms: _166  and  _169
REMARK   76  A    between atoms: _169  and  _170
REMARK   77  A    between atoms: _173  and  _175
REMARK   78  A    between atoms: _175  and  _176
REMARK   79  A    between atoms: _175  and  _178
REMARK   80  A    between atoms: _178  and  _179
REMARK   81  A    between atoms: _182  and  _184
REMARK   82  A    between atoms: _184  and  _185
REMARK   83  A    between atoms: _184  and  _187
REMARK   84  A    between atoms: _187  and  _188
REMARK   85  A    between atoms: _191  and  _193
REMARK   86  A    between atoms: _193  and  _194
REMARK   87  A    between atoms: _193  and  _196
REMARK   88  A    between atoms: _196  and  _197
REMARK   89  A    between atoms: _202  and  _204
REMARK   90  A    between atoms: _204  and  _205
REMARK   91  A    between atoms: _204  and  _207
REMARK   92  A    between atoms: _210  and  _212
REMARK   93  A    between atoms: _212  and  _213
REMARK   94  A    between atoms: _212  and  _215
REMARK   95  A    between atoms: _218  and  _220
REMARK   96  A    between atoms: _220  and  _221
REMARK   97  A    between atoms: _220  and  _223
REMARK   98  A    between atoms: _223  and  _224
REMARK   99  A    between atoms: _229  and  _231
REMARK  100  A    between atoms: _231  and  _232
REMARK  101  A    between atoms: _231  and  _234
REMARK  102  A    between atoms: _234  and  _235
REMARK  103  A    between atoms: _238  and  _240
REMARK  104  A    between atoms: _240  and  _241
REMARK  105  A    between atoms: _240  and  _243
REMARK  106  A    between atoms: _243  and  _244
REMARK  107  A    between atoms: _247  and  _249
REMARK  108  A    between atoms: _249  and  _250
REMARK  109  A    between atoms: _249  and  _252
REMARK  110  A    between atoms: _255  and  _257
REMARK  111  A    between atoms: _257  and  _258
REMARK  112  A    between atoms: _257  and  _260
REMARK  113  A    between atoms: _260  and  _261
REMARK  114  A    between atoms: _264  and  _266
REMARK  115  A    between atoms: _266  and  _267
REMARK  116  A    between atoms: _266  and  _269
REMARK  117  A    between atoms: _269  and  _270
REMARK  118  A    between atoms: _273  and  _275
REMARK  119  A    between atoms: _275  and  _276
REMARK  120  A    between atoms: _275  and  _278
REMARK  121  A    between atoms: _278  and  _279
REMARK  122  A    between atoms: _279  and  _280
REMARK  123  A    between atoms: _283  and  _285
REMARK  124  A    between atoms: _285  and  _286
REMARK  125  A    between atoms: _285  and  _288
REMARK  126  A    between atoms: _288  and  _289
REMARK  127  A    between atoms: _295  and  _297
REMARK  128  A    between atoms: _297  and  _298
REMARK  129  A    between atoms: _297  and  _300
REMARK  130  A    between atoms: _302  and  _304
REMARK  131  A    between atoms: _304  and  _305
REMARK  132  A    between atoms: _304  and  _307
REMARK  133  A    between atoms: _307  and  _308
REMARK  134  A    between atoms: _308  and  _309
REMARK  135  A    between atoms: _309  and  _310
REMARK  136  A    between atoms: _310  and  _311
REMARK  137  A    between atoms: _315  and  _317
REMARK  138  A    between atoms: _317  and  _318
REMARK  139  A    between atoms: _317  and  _320
REMARK  140  A    between atoms: _320  and  _321
REMARK  141  A    between atoms: _327  and  _329
REMARK  142  A    between atoms: _329  and  _330
REMARK  143  A    between atoms: _332  and  _334
REMARK  144  A    between atoms: _334  and  _335
REMARK  145  A    between atoms: _334  and  _337
REMARK  146  A    between atoms: _337  and  _338
REMARK  147  A    between atoms: _343  and  _345
REMARK  148  A    between atoms: _345  and  _346
REMARK  149  A    between atoms: _348  and  _350
REMARK  150  A    between atoms: _350  and  _351
REMARK  151  A    between atoms: _350  and  _353
REMARK  152  A    between atoms: _353  and  _354
REMARK  153  A    between atoms: _354  and  _355
REMARK  154  A    between atoms: _357  and  _359
REMARK  155  A    between atoms: _359  and  _360
REMARK  156  A    between atoms: _359  and  _362
REMARK  157  A    between atoms: _362  and  _363
REMARK  158  A    between atoms: _369  and  _371
REMARK  159  A    between atoms: _371  and  _372
REMARK  160  A    between atoms: _371  and  _374
REMARK  161  A    between atoms: _374  and  _375
REMARK  162  A    between atoms: _378  and  _380
REMARK  163  A    between atoms: _380  and  _381
REMARK  164  A    between atoms: _380  and  _383
REMARK  165  A    between atoms: _383  and  _384
REMARK  166  A    between atoms: _384  and  _385
REMARK  167  A    between atoms: _385  and  _386
REMARK  168  A    between atoms: _386  and  _387
REMARK  169  A    between atoms: _391  and  _393
REMARK  170  A    between atoms: _393  and  _394
REMARK  171  A    between atoms: _393  and  _396
REMARK  172  A    between atoms: _398  and  _400
REMARK  173  A    between atoms: _400  and  _401
REMARK  174  A    between atoms: _400  and  _403
REMARK  175  A    between atoms: _403  and  _404
REMARK  176  A    between atoms: _407  and  _409
REMARK  177  A    between atoms: _409  and  _410
REMARK  178  A    between atoms: _409  and  _412
REMARK  179  A    between atoms: _412  and  _413
REMARK  180  A    between atoms: _418  and  _420
REMARK  181  A    between atoms: _420  and  _421
REMARK  182  A    between atoms: _420  and  _423
REMARK  183  A    between atoms: _423  and  _424
REMARK  184  A    between atoms: _424  and  _425
REMARK  185  A    between atoms: _425  and  _426
REMARK  186  A    between atoms: _435  and  _437
REMARK  187  A    between atoms: _437  and  _438
REMARK  188  A    between atoms: _437  and  _440
REMARK  189  A    between atoms: _440  and  _441
REMARK  190  A    between atoms: _444  and  _446
REMARK  191  A    between atoms: _446  and  _447
REMARK  192  A    between atoms: _446  and  _449
REMARK  193  A    between atoms: _449  and  _450
REMARK  194  A    between atoms: _455  and  _457
REMARK  195  A    between atoms: _457  and  _458
REMARK  196  A    between atoms: _457  and  _460
REMARK  197  A    between atoms: _460  and  _461
REMARK  198  A    between atoms: _464  and  _466
REMARK  199  A    between atoms: _466  and  _467
REMARK  200  A    between atoms: _466  and  _469
REMARK  201  A    between atoms: _469  and  _470
REMARK  202  A    between atoms: _473  and  _475
REMARK  203  A    between atoms: _475  and  _476
REMARK  204  A    between atoms: _475  and  _478
REMARK  205  A    between atoms: _478  and  _479
REMARK  206  A    between atoms: _481  and  _483
REMARK  207  A    between atoms: _483  and  _484
REMARK  208  A    between atoms: _483  and  _486
REMARK  209  A    between atoms: _486  and  _487
REMARK  210  A    between atoms: _487  and  _488
REMARK  211  A    between atoms: _488  and  _489
REMARK  212  A    between atoms: _489  and  _490
REMARK  213  A    between atoms: _494  and  _496
REMARK  214  A    between atoms: _496  and  _497
REMARK  215  A    between atoms: _496  and  _499
REMARK  216  A    between atoms: _499  and  _500
REMARK  217  A    between atoms: _503  and  _505
REMARK  218  A    between atoms: _505  and  _506
REMARK  219  A    between atoms: _505  and  _508
REMARK  220  A    between atoms: _510  and  _512
REMARK  221  A    between atoms: _512  and  _513
REMARK  222  A    between atoms: _512  and  _515
REMARK  223  A    between atoms: _515  and  _516
REMARK  224  A    between atoms: _519  and  _521
REMARK  225  A    between atoms: _521  and  _522
REMARK  226  A    between atoms: _521  and  _524
REMARK  227  A    between atoms: _524  and  _525
REMARK  228  A    between atoms: _531  and  _533
REMARK  229  A    between atoms: _533  and  _534
REMARK  230  A    between atoms: _536  and  _538
REMARK  231  A    between atoms: _538  and  _539
REMARK  232  A    between atoms: _538  and  _541
REMARK  233  A    between atoms: _541  and  _542
REMARK                            x       y       z     vdW  Elec       q    Type
REMARK                         _______ _______ _______ _____ _____    ______ ____
ROOT
ATOM      1  CA  ASP A   1      48.188  48.294  14.331  0.00  0.00    +0.144 C 
ENDROOT
BRANCH   1   2
ATOM      2  N   ASP A   1      48.156  49.664  14.841  0.00  0.00    -0.239 NA
ATOM      3  H   ASP A   1      47.627  50.398  14.328  0.00  0.00    +0.142 HD
ENDBRANCH   1   2
BRANCH   1   4
ATOM      4  C   ASP A   1      49.621  48.023  13.821  0.00  0.00    +0.225 C 
ATOM      5  O   ASP A   1      50.121  46.896  13.926  0.00  0.00    -0.287 OA
ENDBRANCH   1   4
BRANCH   1   6
ATOM      6  CB  ASP A   1      47.180  48.093  13.191  0.00  0.00    +0.139 C 
BRANCH   6   7
ATOM      7  CG  ASP A   1      45.800  47.600  13.676  0.00  0.00    +0.367 C 
ATOM      8  OD2 ASP A   1      45.579  47.410  14.907  0.00  0.00    -0.246 OA
ATOM      9  OD1 ASP A   1      44.927  47.399  12.792  0.00  0.00    -0.246 OA
ENDBRANCH   6   7
ENDBRANCH   1   6
TORSDOF 4
REMARK  Name = ../refined-set-2016/2qu6/2qu6_pocket.pdb
REMARK  233 active torsions:
REMARK  status: ('A' for Active; 'I' for Inactive)
REMARK    1  A    between atoms: _1  and  _3
REMARK    2  A    between atoms: _3  and  _4
REMARK    3  A    between atoms: _3  and  _6
REMARK    4  A    between atoms: _6  and  _7
REMARK    5  A    between atoms: _7  and  _8
REMARK    6  A    between atoms: _8  and  _9
REMARK    7  A    between atoms: _9  and  _10
REMARK    8  A    between atoms: _15  and  _16
REMARK    9  A    between atoms: _21  and  _23
REMARK   10  A    between atoms: _23  and  _24
REMARK   11  A    between atoms: _23  and  _26
REMARK   12  A    between atoms: _26  and  _27
REMARK   13  A    between atoms: _30  and  _32
REMARK   14  A    between atoms: _32  and  _33
REMARK   15  A    between atoms: _32  and  _35
REMARK   16  A    between atoms: _35  and  _36
REMARK   17  A    between atoms: _36  and  _37
REMARK   18  A    between atoms: _42  and  _44
REMARK   19  A    between atoms: _44  and  _45
REMARK   20  A    between atoms: _44  and  _47
REMARK   21  A    between atoms: _50  and  _52
REMARK   22  A    between atoms: _52  and  _53
REMARK   23  A    between atoms: _52  and  _55
REMARK   24  A    between atoms: _55  and  _56
REMARK   25  A    between atoms: _59  and  _61
REMARK   26  A    between atoms: _61  and  _62
REMARK   27  A    between atoms: _61  and  _64
REMARK   28  A    between atoms: _64  and  _65
REMARK   29  A    between atoms: _65  and  _66
REMARK   30  A    between atoms: _69  and  _71
REMARK   31  A    between atoms: _71  and  _72
REMARK   32  A    between atoms: _71  and  _74
REMARK   33  A    between atoms: _74  and  _75
REMARK   34  A    between atoms: _78  and  _80
REMARK   35  A    between atoms: _80  and  _81
REMARK   36  A    between atoms: _80  and  _83
REMARK   37  A    between atoms: _86  and  _88
REMARK   38  A    between atoms: _88  and  _89
REMARK   39  A    between atoms: _92  and  _94
REMARK   40  A    between atoms: _94  and  _95
REMARK   41  A    between atoms: _94  and  _97
REMARK   42  A    between atoms: _100  and  _102
REMARK   43  A    between atoms: _102  and  _103
REMARK   44  A    between atoms: _102  and  _105
REMARK   45  A    between atoms: _105  and  _106
REMARK   46  A    between atoms: _106  and  _107
REMARK   47  A    between atoms: _107  and  _108
REMARK   48  A    between atoms: _108  and  _109
REMARK   49  A    between atoms: _113  and  _115
REMARK   50  A    between atoms: _115  and  _116
REMARK   51  A    between atoms: _115  and  _118
REMARK   52  A    between atoms: _118  and  _119
REMARK   53  A    between atoms: _119  and  _120
REMARK   54  A    between atoms: _122  and  _124
REMARK   55  A    between atoms: _124  and  _125
REMARK   56  A    between atoms: _128  and  _130
REMARK   57  A    between atoms: _130  and  _131
REMARK   58  A    between atoms: _130  and  _133
REMARK   59  A    between atoms: _133  and  _134
REMARK   60  A    between atoms: _137  and  _139
REMARK   61  A    between atoms: _139  and  _140
REMARK   62  A    between atoms: _139  and  _142
REMARK   63  A    between atoms: _142  and  _143
REMARK   64  A    between atoms: _145  and  _147
REMARK   65  A    between atoms: _147  and  _148
REMARK   66  A    between atoms: _147  and  _150
REMARK   67  A    between atoms: _150  and  _151
REMARK   68  A    between atoms: _151  and  _152
REMARK   69  A    between atoms: _155  and  _157
REMARK   70  A    between atoms: _157  and  _158
REMARK   71  A    between atoms: _157  and  _160
REMARK   72  A    between atoms: _160  and  _161
REMARK   73  A    between atoms: _164  and  _166
REMARK   74  A    between atoms: _166  and  _167
REMARK   75  A    between atoms: _166  and  _169
REMARK   76  A    between atoms: _169  and  _170
REMARK   77  A    between atoms: _173  and  _175
REMARK   78  A    between atoms: _175  and  _176
REMARK   79  A    between atoms: _175  and  _178
REMARK   80  A    between atoms: _178  and  _179
REMARK   81  A    between atoms: _182  and  _184
REMARK   82  A    between atoms: _184  and  _185
REMARK   83  A    between atoms: _184  and  _187
REMARK   84  A    between atoms: _187  and  _188
REMARK   85  A    between atoms: _191  and  _193
REMARK   86  A    between atoms: _193  and  _194
REMARK   87  A    between atoms: _193  and  _196
REMARK   88  A    between atoms: _196  and  _197
REMARK   89  A    between atoms: _202  and  _204
REMARK   90  A    between atoms: _204  and  _205
REMARK   91  A    between atoms: _204  and  _207
REMARK   92  A    between atoms: _210  and  _212
REMARK   93  A    between atoms: _212  and  _213
REMARK   94  A    between atoms: _212  and  _215
REMARK   95  A    between atoms: _218  and  _220
REMARK   96  A    between atoms: _220  and  _221
REMARK   97  A    between atoms: _220  and  _223
REMARK   98  A    between atoms: _223  and  _224
REMARK   99  A    between atoms: _229  and  _231
REMARK  100  A    between atoms: _231  and  _232
REMARK  101  A    between atoms: _231  and  _234
REMARK  102  A    between atoms: _234  and  _235
REMARK  103  A    between atoms: _238  and  _240
REMARK  104  A    between atoms: _240  and  _241
REMARK  105  A    between atoms: _240  and  _243
REMARK  106  A    between atoms: _243  and  _244
REMARK  107  A    between atoms: _247  and  _249
REMARK  108  A    between atoms: _249  and  _250
REMARK  109  A    between atoms: _249  and  _252
REMARK  110  A    between atoms: _255  and  _257
REMARK  111  A    between atoms: _257  and  _258
REMARK  112  A    between atoms: _257  and  _260
REMARK  113  A    between atoms: _260  and  _261
REMARK  114  A    between atoms: _264  and  _266
REMARK  115  A    between atoms: _266  and  _267
REMARK  116  A    between atoms: _266  and  _269
REMARK  117  A    between atoms: _269  and  _270
REMARK  118  A    between atoms: _273  and  _275
REMARK  119  A    between atoms: _275  and  _276
REMARK  120  A    between atoms: _275  and  _278
REMARK  121  A    between atoms: _278  and  _279
REMARK  122  A    between atoms: _279  and  _280
REMARK  123  A    between atoms: _283  and  _285
REMARK  124  A    between atoms: _285  and  _286
REMARK  125  A    between atoms: _285  and  _288
REMARK  126  A    between atoms: _288  and  _289
REMARK  127  A    between atoms: _295  and  _297
REMARK  128  A    between atoms: _297  and  _298
REMARK  129  A    between atoms: _297  and  _300
REMARK  130  A    between atoms: _302  and  _304
REMARK  131  A    between atoms: _304  and  _305
REMARK  132  A    between atoms: _304  and  _307
REMARK  133  A    between atoms: _307  and  _308
REMARK  134  A    between atoms: _308  and  _309
REMARK  135  A    between atoms: _309  and  _310
REMARK  136  A    between atoms: _310  and  _311
REMARK  137  A    between atoms: _315  and  _317
REMARK  138  A    between atoms: _317  and  _318
REMARK  139  A    between atoms: _317  and  _320
REMARK  140  A    between atoms: _320  and  _321
REMARK  141  A    between atoms: _327  and  _329
REMARK  142  A    between atoms: _329  and  _330
REMARK  143  A    between atoms: _332  and  _334
REMARK  144  A    between atoms: _334  and  _335
REMARK  145  A    between atoms: _334  and  _337
REMARK  146  A    between atoms: _337  and  _338
REMARK  147  A    between atoms: _343  and  _345
REMARK  148  A    between atoms: _345  and  _346
REMARK  149  A    between atoms: _348  and  _350
REMARK  150  A    between atoms: _350  and  _351
REMARK  151  A    between atoms: _350  and  _353
REMARK  152  A    between atoms: _353  and  _354
REMARK  153  A    between atoms: _354  and  _355
REMARK  154  A    between atoms: _357  and  _359
REMARK  155  A    between atoms: _359  and  _360
REMARK  156  A    between atoms: _359  and  _362
REMARK  157  A    between atoms: _362  and  _363
REMARK  158  A    between atoms: _369  and  _371
REMARK  159  A    between atoms: _371  and  _372
REMARK  160  A    between atoms: _371  and  _374
REMARK  161  A    between atoms: _374  and  _375
REMARK  162  A    between atoms: _378  and  _380
REMARK  163  A    between atoms: _380  and  _381
REMARK  164  A    between atoms: _380  and  _383
REMARK  165  A    between atoms: _383  and  _384
REMARK  166  A    between atoms: _384  and  _385
REMARK  167  A    between atoms: _385  and  _386
REMARK  168  A    between atoms: _386  and  _387
REMARK  169  A    between atoms: _391  and  _393
REMARK  170  A    between atoms: _393  and  _394
REMARK  171  A    between atoms: _393  and  _396
REMARK  172  A    between atoms: _398  and  _400
REMARK  173  A    between atoms: _400  and  _401
REMARK  174  A    between atoms: _400  and  _403
REMARK  175  A    between atoms: _403  and  _404
REMARK  176  A    between atoms: _407  and  _409
REMARK  177  A    between atoms: _409  and  _410
REMARK  178  A    between atoms: _409  and  _412
REMARK  179  A    between atoms: _412  and  _413
REMARK  180  A    between atoms: _418  and  _420
REMARK  181  A    between atoms: _420  and  _421
REMARK  182  A    between atoms: _420  and  _423
REMARK  183  A    between atoms: _423  and  _424
REMARK  184  A    between atoms: _424  and  _425
REMARK  185  A    between atoms: _425  and  _426
REMARK  186  A    between atoms: _435  and  _437
REMARK  187  A    between atoms: _437  and  _438
REMARK  188  A    between atoms: _437  and  _440
REMARK  189  A    between atoms: _440  and  _441
REMARK  190  A    between atoms: _444  and  _446
REMARK  191  A    between atoms: _446  and  _447
REMARK  192  A    between atoms: _446  and  _449
REMARK  193  A    between atoms: _449  and  _450
REMARK  194  A    between atoms: _455  and  _457
REMARK  195  A    between atoms: _457  and  _458
REMARK  196  A    between atoms: _457  and  _460
REMARK  197  A    between atoms: _460  and  _461
REMARK  198  A    between atoms: _464  and  _466
REMARK  199  A    between atoms: _466  and  _467
REMARK  200  A    between atoms: _466  and  _469
REMARK  201  A    between atoms: _469  and  _470
REMARK  202  A    between atoms: _473  and  _475
REMARK  203  A    between atoms: _475  and  _476
REMARK  204  A    between atoms: _475  and  _478
REMARK  205  A    between atoms: _478  and  _479
REMARK  206  A    between atoms: _481  and  _483
REMARK  207  A    between atoms: _483  and  _484
REMARK  208  A    between atoms: _483  and  _486
REMARK  209  A    between atoms: _486  and  _487
REMARK  210  A    between atoms: _487  and  _488
REMARK  211  A    between atoms: _488  and  _489
REMARK  212  A    between atoms: _489  and  _490
REMARK  213  A    between atoms: _494  and  _496
REMARK  214  A    between atoms: _496  and  _497
REMARK  215  A    between atoms: _496  and  _499
REMARK  216  A    between atoms: _499  and  _500
REMARK  217  A    between atoms: _503  and  _505
REMARK  218  A    between atoms: _505  and  _506
REMARK  219  A    between atoms: _505  and  _508
REMARK  220  A    between atoms: _510  and  _512
REMARK  221  A    between atoms: _512  and  _513
REMARK  222  A    between atoms: _512  and  _515
REMARK  223  A    between atoms: _515  and  _516
REMARK  224  A    between atoms: _519  and  _521
REMARK  225  A    between atoms: _521  and  _522
REMARK  226  A    between atoms: _521  and  _524
REMARK  227  A    between atoms: _524  and  _525
REMARK  228  A    between atoms: _531  and  _533
REMARK  229  A    between atoms: _533  and  _534
REMARK  230  A    between atoms: _536  and  _538
REMARK  231  A    between atoms: _538  and  _539
REMARK  232  A    between atoms: _538  and  _541
REMARK  233  A    between atoms: _541  and  _542
REMARK                            x       y       z     vdW  Elec       q    Type
REMARK                         _______ _______ _______ _____ _____    ______ ____
ROOT
ATOM      1  O   HOH     1      38.467  48.605  14.762  0.00  0.00    +0.000 OA
ENDROOT
TORSDOF 0
REMARK  Name = ../refined-set-2016/2qu6/2qu6_pocket.pdb
REMARK  233 active torsions:
REMARK  status: ('A' for Active; 'I' for Inactive)
REMARK    1  A    between atoms: _1  and  _3
REMARK    2  A    between atoms: _3  and  _4
REMARK    3  A    between atoms: _3  and  _6
REMARK    4  A    between atoms: _6  and  _7
REMARK    5  A    between atoms: _7  and  _8
REMARK    6  A    between atoms: _8  and  _9
REMARK    7  A    between atoms: _9  and  _10
REMARK    8  A    between atoms: _15  and  _16
REMARK    9  A    between atoms: _21  and  _23
REMARK   10  A    between atoms: _23  and  _24
REMARK   11  A    between atoms: _23  and  _26
REMARK   12  A    between atoms: _26  and  _27
REMARK   13  A    between atoms: _30  and  _32
REMARK   14  A    between atoms: _32  and  _33
REMARK   15  A    between atoms: _32  and  _35
REMARK   16  A    between atoms: _35  and  _36
REMARK   17  A    between atoms: _36  and  _37
REMARK   18  A    between atoms: _42  and  _44
REMARK   19  A    between atoms: _44  and  _45
REMARK   20  A    between atoms: _44  and  _47
REMARK   21  A    between atoms: _50  and  _52
REMARK   22  A    between atoms: _52  and  _53
REMARK   23  A    between atoms: _52  and  _55
REMARK   24  A    between atoms: _55  and  _56
REMARK   25  A    between atoms: _59  and  _61
REMARK   26  A    between atoms: _61  and  _62
REMARK   27  A    between atoms: _61  and  _64
REMARK   28  A    between atoms: _64  and  _65
REMARK   29  A    between atoms: _65  and  _66
REMARK   30  A    between atoms: _69  and  _71
REMARK   31  A    between atoms: _71  and  _72
REMARK   32  A    between atoms: _71  and  _74
REMARK   33  A    between atoms: _74  and  _75
REMARK   34  A    between atoms: _78  and  _80
REMARK   35  A    between atoms: _80  and  _81
REMARK   36  A    between atoms: _80  and  _83
REMARK   37  A    between atoms: _86  and  _88
REMARK   38  A    between atoms: _88  and  _89
REMARK   39  A    between atoms: _92  and  _94
REMARK   40  A    between atoms: _94  and  _95
REMARK   41  A    between atoms: _94  and  _97
REMARK   42  A    between atoms: _100  and  _102
REMARK   43  A    between atoms: _102  and  _103
REMARK   44  A    between atoms: _102  and  _105
REMARK   45  A    between atoms: _105  and  _106
REMARK   46  A    between atoms: _106  and  _107
REMARK   47  A    between atoms: _107  and  _108
REMARK   48  A    between atoms: _108  and  _109
REMARK   49  A    between atoms: _113  and  _115
REMARK   50  A    between atoms: _115  and  _116
REMARK   51  A    between atoms: _115  and  _118
REMARK   52  A    between atoms: _118  and  _119
REMARK   53  A    between atoms: _119  and  _120
REMARK   54  A    between atoms: _122  and  _124
REMARK   55  A    between atoms: _124  and  _125
REMARK   56  A    between atoms: _128  and  _130
REMARK   57  A    between atoms: _130  and  _131
REMARK   58  A    between atoms: _130  and  _133
REMARK   59  A    between atoms: _133  and  _134
REMARK   60  A    between atoms: _137  and  _139
REMARK   61  A    between atoms: _139  and  _140
REMARK   62  A    between atoms: _139  and  _142
REMARK   63  A    between atoms: _142  and  _143
REMARK   64  A    between atoms: _145  and  _147
REMARK   65  A    between atoms: _147  and  _148
REMARK   66  A    between atoms: _147  and  _150
REMARK   67  A    between atoms: _150  and  _151
REMARK   68  A    between atoms: _151  and  _152
REMARK   69  A    between atoms: _155  and  _157
REMARK   70  A    between atoms: _157  and  _158
REMARK   71  A    between atoms: _157  and  _160
REMARK   72  A    between atoms: _160  and  _161
REMARK   73  A    between atoms: _164  and  _166
REMARK   74  A    between atoms: _166  and  _167
REMARK   75  A    between atoms: _166  and  _169
REMARK   76  A    between atoms: _169  and  _170
REMARK   77  A    between atoms: _173  and  _175
REMARK   78  A    between atoms: _175  and  _176
REMARK   79  A    between atoms: _175  and  _178
REMARK   80  A    between atoms: _178  and  _179
REMARK   81  A    between atoms: _182  and  _184
REMARK   82  A    between atoms: _184  and  _185
REMARK   83  A    between atoms: _184  and  _187
REMARK   84  A    between atoms: _187  and  _188
REMARK   85  A    between atoms: _191  and  _193
REMARK   86  A    between atoms: _193  and  _194
REMARK   87  A    between atoms: _193  and  _196
REMARK   88  A    between atoms: _196  and  _197
REMARK   89  A    between atoms: _202  and  _204
REMARK   90  A    between atoms: _204  and  _205
REMARK   91  A    between atoms: _204  and  _207
REMARK   92  A    between atoms: _210  and  _212
REMARK   93  A    between atoms: _212  and  _213
REMARK   94  A    between atoms: _212  and  _215
REMARK   95  A    between atoms: _218  and  _220
REMARK   96  A    between atoms: _220  and  _221
REMARK   97  A    between atoms: _220  and  _223
REMARK   98  A    between atoms: _223  and  _224
REMARK   99  A    between atoms: _229  and  _231
REMARK  100  A    between atoms: _231  and  _232
REMARK  101  A    between atoms: _231  and  _234
REMARK  102  A    between atoms: _234  and  _235
REMARK  103  A    between atoms: _238  and  _240
REMARK  104  A    between atoms: _240  and  _241
REMARK  105  A    between atoms: _240  and  _243
REMARK  106  A    between atoms: _243  and  _244
REMARK  107  A    between atoms: _247  and  _249
REMARK  108  A    between atoms: _249  and  _250
REMARK  109  A    between atoms: _249  and  _252
REMARK  110  A    between atoms: _255  and  _257
REMARK  111  A    between atoms: _257  and  _258
REMARK  112  A    between atoms: _257  and  _260
REMARK  113  A    between atoms: _260  and  _261
REMARK  114  A    between atoms: _264  and  _266
REMARK  115  A    between atoms: _266  and  _267
REMARK  116  A    between atoms: _266  and  _269
REMARK  117  A    between atoms: _269  and  _270
REMARK  118  A    between atoms: _273  and  _275
REMARK  119  A    between atoms: _275  and  _276
REMARK  120  A    between atoms: _275  and  _278
REMARK  121  A    between atoms: _278  and  _279
REMARK  122  A    between atoms: _279  and  _280
REMARK  123  A    between atoms: _283  and  _285
REMARK  124  A    between atoms: _285  and  _286
REMARK  125  A    between atoms: _285  and  _288
REMARK  126  A    between atoms: _288  and  _289
REMARK  127  A    between atoms: _295  and  _297
REMARK  128  A    between atoms: _297  and  _298
REMARK  129  A    between atoms: _297  and  _300
REMARK  130  A    between atoms: _302  and  _304
REMARK  131  A    between atoms: _304  and  _305
REMARK  132  A    between atoms: _304  and  _307
REMARK  133  A    between atoms: _307  and  _308
REMARK  134  A    between atoms: _308  and  _309
REMARK  135  A    between atoms: _309  and  _310
REMARK  136  A    between atoms: _310  and  _311
REMARK  137  A    between atoms: _315  and  _317
REMARK  138  A    between atoms: _317  and  _318
REMARK  139  A    between atoms: _317  and  _320
REMARK  140  A    between atoms: _320  and  _321
REMARK  141  A    between atoms: _327  and  _329
REMARK  142  A    between atoms: _329  and  _330
REMARK  143  A    between atoms: _332  and  _334
REMARK  144  A    between atoms: _334  and  _335
REMARK  145  A    between atoms: _334  and  _337
REMARK  146  A    between atoms: _337  and  _338
REMARK  147  A    between atoms: _343  and  _345
REMARK  148  A    between atoms: _345  and  _346
REMARK  149  A    between atoms: _348  and  _350
REMARK  150  A    between atoms: _350  and  _351
REMARK  151  A    between atoms: _350  and  _353
REMARK  152  A    between atoms: _353  and  _354
REMARK  153  A    between atoms: _354  and  _355
REMARK  154  A    between atoms: _357  and  _359
REMARK  155  A    between atoms: _359  and  _360
REMARK  156  A    between atoms: _359  and  _362
REMARK  157  A    between atoms: _362  and  _363
REMARK  158  A    between atoms: _369  and  _371
REMARK  159  A    between atoms: _371  and  _372
REMARK  160  A    between atoms: _371  and  _374
REMARK  161  A    between atoms: _374  and  _375
REMARK  162  A    between atoms: _378  and  _380
REMARK  163  A    between atoms: _380  and  _381
REMARK  164  A    between atoms: _380  and  _383
REMARK  165  A    between atoms: _383  and  _384
REMARK  166  A    between atoms: _384  and  _385
REMARK  167  A    between atoms: _385  and  _386
REMARK  168  A    between atoms: _386  and  _387
REMARK  169  A    between atoms: _391  and  _393
REMARK  170  A    between atoms: _393  and  _394
REMARK  171  A    between atoms: _393  and  _396
REMARK  172  A    between atoms: _398  and  _400
REMARK  173  A    between atoms: _400  and  _401
REMARK  174  A    between atoms: _400  and  _403
REMARK  175  A    between atoms: _403  and  _404
REMARK  176  A    between atoms: _407  and  _409
REMARK  177  A    between atoms: _409  and  _410
REMARK  178  A    between atoms: _409  and  _412
REMARK  179  A    between atoms: _412  and  _413
REMARK  180  A    between atoms: _418  and  _420
REMARK  181  A    between atoms: _420  and  _421
REMARK  182  A    between atoms: _420  and  _423
REMARK  183  A    between atoms: _423  and  _424
REMARK  184  A    between atoms: _424  and  _425
REMARK  185  A    between atoms: _425  and  _426
REMARK  186  A    between atoms: _435  and  _437
REMARK  187  A    between atoms: _437  and  _438
REMARK  188  A    between atoms: _437  and  _440
REMARK  189  A    between atoms: _440  and  _441
REMARK  190  A    between atoms: _444  and  _446
REMARK  191  A    between atoms: _446  and  _447
REMARK  192  A    between atoms: _446  and  _449
REMARK  193  A    between atoms: _449  and  _450
REMARK  194  A    between atoms: _455  and  _457
REMARK  195  A    between atoms: _457  and  _458
REMARK  196  A    between atoms: _457  and  _460
REMARK  197  A    between atoms: _460  and  _461
REMARK  198  A    between atoms: _464  and  _466
REMARK  199  A    between atoms: _466  and  _467
REMARK  200  A    between atoms: _466  and  _469
REMARK  201  A    between atoms: _469  and  _470
REMARK  202  A    between atoms: _473  and  _475
REMARK  203  A    between atoms: _475  and  _476
REMARK  204  A    between atoms: _475  and  _478
REMARK  205  A    between atoms: _478  and  _479
REMARK  206  A    between atoms: _481  and  _483
REMARK  207  A    between atoms: _483  and  _484
REMARK  208  A    between atoms: _483  and  _486
REMARK  209  A    between atoms: _486  and  _487
REMARK  210  A    between atoms: _487  and  _488
REMARK  211  A    between atoms: _488  and  _489
REMARK  212  A    between atoms: _489  and  _490
REMARK  213  A    between atoms: _494  and  _496
REMARK  214  A    between atoms: _496  and  _497
REMARK  215  A    between atoms: _496  and  _499
REMARK  216  A    between atoms: _499  and  _500
REMARK  217  A    between atoms: _503  and  _505
REMARK  218  A    between atoms: _505  and  _506
REMARK  219  A    between atoms: _505  and  _508
REMARK  220  A    between atoms: _510  and  _512
REMARK  221  A    between atoms: _512  and  _513
REMARK  222  A    between atoms: _512  and  _515
REMARK  223  A    between atoms: _515  and  _516
REMARK  224  A    between atoms: _519  and  _521
REMARK  225  A    between atoms: _521  and  _522
REMARK  226  A    between atoms: _521  and  _524
REMARK  227  A    between atoms: _524  and  _525
REMARK  228  A    between atoms: _531  and  _533
REMARK  229  A    between atoms: _533  and  _534
REMARK  230  A    between atoms: _536  and  _538
REMARK  231  A    between atoms: _538  and  _539
REMARK  232  A    between atoms: _538  and  _541
REMARK  233  A    between atoms: _541  and  _542
REMARK                            x       y       z     vdW  Elec       q    Type
REMARK                         _______ _______ _______ _____ _____    ______ ____
ROOT
ATOM      1  O   HOH     1      49.315  25.844  16.480  0.00  0.00    +0.000 OA
ENDROOT
TORSDOF 0
REMARK  Name = ../refined-set-2016/2qu6/2qu6_pocket.pdb
REMARK  233 active torsions:
REMARK  status: ('A' for Active; 'I' for Inactive)
REMARK    1  A    between atoms: _1  and  _3
REMARK    2  A    between atoms: _3  and  _4
REMARK    3  A    between atoms: _3  and  _6
REMARK    4  A    between atoms: _6  and  _7
REMARK    5  A    between atoms: _7  and  _8
REMARK    6  A    between atoms: _8  and  _9
REMARK    7  A    between atoms: _9  and  _10
REMARK    8  A    between atoms: _15  and  _16
REMARK    9  A    between atoms: _21  and  _23
REMARK   10  A    between atoms: _23  and  _24
REMARK   11  A    between atoms: _23  and  _26
REMARK   12  A    between atoms: _26  and  _27
REMARK   13  A    between atoms: _30  and  _32
REMARK   14  A    between atoms: _32  and  _33
REMARK   15  A    between atoms: _32  and  _35
REMARK   16  A    between atoms: _35  and  _36
REMARK   17  A    between atoms: _36  and  _37
REMARK   18  A    between atoms: _42  and  _44
REMARK   19  A    between atoms: _44  and  _45
REMARK   20  A    between atoms: _44  and  _47
REMARK   21  A    between atoms: _50  and  _52
REMARK   22  A    between atoms: _52  and  _53
REMARK   23  A    between atoms: _52  and  _55
REMARK   24  A    between atoms: _55  and  _56
REMARK   25  A    between atoms: _59  and  _61
REMARK   26  A    between atoms: _61  and  _62
REMARK   27  A    between atoms: _61  and  _64
REMARK   28  A    between atoms: _64  and  _65
REMARK   29  A    between atoms: _65  and  _66
REMARK   30  A    between atoms: _69  and  _71
REMARK   31  A    between atoms: _71  and  _72
REMARK   32  A    between atoms: _71  and  _74
REMARK   33  A    between atoms: _74  and  _75
REMARK   34  A    between atoms: _78  and  _80
REMARK   35  A    between atoms: _80  and  _81
REMARK   36  A    between atoms: _80  and  _83
REMARK   37  A    between atoms: _86  and  _88
REMARK   38  A    between atoms: _88  and  _89
REMARK   39  A    between atoms: _92  and  _94
REMARK   40  A    between atoms: _94  and  _95
REMARK   41  A    between atoms: _94  and  _97
REMARK   42  A    between atoms: _100  and  _102
REMARK   43  A    between atoms: _102  and  _103
REMARK   44  A    between atoms: _102  and  _105
REMARK   45  A    between atoms: _105  and  _106
REMARK   46  A    between atoms: _106  and  _107
REMARK   47  A    between atoms: _107  and  _108
REMARK   48  A    between atoms: _108  and  _109
REMARK   49  A    between atoms: _113  and  _115
REMARK   50  A    between atoms: _115  and  _116
REMARK   51  A    between atoms: _115  and  _118
REMARK   52  A    between atoms: _118  and  _119
REMARK   53  A    between atoms: _119  and  _120
REMARK   54  A    between atoms: _122  and  _124
REMARK   55  A    between atoms: _124  and  _125
REMARK   56  A    between atoms: _128  and  _130
REMARK   57  A    between atoms: _130  and  _131
REMARK   58  A    between atoms: _130  and  _133
REMARK   59  A    between atoms: _133  and  _134
REMARK   60  A    between atoms: _137  and  _139
REMARK   61  A    between atoms: _139  and  _140
REMARK   62  A    between atoms: _139  and  _142
REMARK   63  A    between atoms: _142  and  _143
REMARK   64  A    between atoms: _145  and  _147
REMARK   65  A    between atoms: _147  and  _148
REMARK   66  A    between atoms: _147  and  _150
REMARK   67  A    between atoms: _150  and  _151
REMARK   68  A    between atoms: _151  and  _152
REMARK   69  A    between atoms: _155  and  _157
REMARK   70  A    between atoms: _157  and  _158
REMARK   71  A    between atoms: _157  and  _160
REMARK   72  A    between atoms: _160  and  _161
REMARK   73  A    between atoms: _164  and  _166
REMARK   74  A    between atoms: _166  and  _167
REMARK   75  A    between atoms: _166  and  _169
REMARK   76  A    between atoms: _169  and  _170
REMARK   77  A    between atoms: _173  and  _175
REMARK   78  A    between atoms: _175  and  _176
REMARK   79  A    between atoms: _175  and  _178
REMARK   80  A    between atoms: _178  and  _179
REMARK   81  A    between atoms: _182  and  _184
REMARK   82  A    between atoms: _184  and  _185
REMARK   83  A    between atoms: _184  and  _187
REMARK   84  A    between atoms: _187  and  _188
REMARK   85  A    between atoms: _191  and  _193
REMARK   86  A    between atoms: _193  and  _194
REMARK   87  A    between atoms: _193  and  _196
REMARK   88  A    between atoms: _196  and  _197
REMARK   89  A    between atoms: _202  and  _204
REMARK   90  A    between atoms: _204  and  _205
REMARK   91  A    between atoms: _204  and  _207
REMARK   92  A    between atoms: _210  and  _212
REMARK   93  A    between atoms: _212  and  _213
REMARK   94  A    between atoms: _212  and  _215
REMARK   95  A    between atoms: _218  and  _220
REMARK   96  A    between atoms: _220  and  _221
REMARK   97  A    between atoms: _220  and  _223
REMARK   98  A    between atoms: _223  and  _224
REMARK   99  A    between atoms: _229  and  _231
REMARK  100  A    between atoms: _231  and  _232
REMARK  101  A    between atoms: _231  and  _234
REMARK  102  A    between atoms: _234  and  _235
REMARK  103  A    between atoms: _238  and  _240
REMARK  104  A    between atoms: _240  and  _241
REMARK  105  A    between atoms: _240  and  _243
REMARK  106  A    between atoms: _243  and  _244
REMARK  107  A    between atoms: _247  and  _249
REMARK  108  A    between atoms: _249  and  _250
REMARK  109  A    between atoms: _249  and  _252
REMARK  110  A    between atoms: _255  and  _257
REMARK  111  A    between atoms: _257  and  _258
REMARK  112  A    between atoms: _257  and  _260
REMARK  113  A    between atoms: _260  and  _261
REMARK  114  A    between atoms: _264  and  _266
REMARK  115  A    between atoms: _266  and  _267
REMARK  116  A    between atoms: _266  and  _269
REMARK  117  A    between atoms: _269  and  _270
REMARK  118  A    between atoms: _273  and  _275
REMARK  119  A    between atoms: _275  and  _276
REMARK  120  A    between atoms: _275  and  _278
REMARK  121  A    between atoms: _278  and  _279
REMARK  122  A    between atoms: _279  and  _280
REMARK  123  A    between atoms: _283  and  _285
REMARK  124  A    between atoms: _285  and  _286
REMARK  125  A    between atoms: _285  and  _288
REMARK  126  A    between atoms: _288  and  _289
REMARK  127  A    between atoms: _295  and  _297
REMARK  128  A    between atoms: _297  and  _298
REMARK  129  A    between atoms: _297  and  _300
REMARK  130  A    between atoms: _302  and  _304
REMARK  131  A    between atoms: _304  and  _305
REMARK  132  A    between atoms: _304  and  _307
REMARK  133  A    between atoms: _307  and  _308
REMARK  134  A    between atoms: _308  and  _309
REMARK  135  A    between atoms: _309  and  _310
REMARK  136  A    between atoms: _310  and  _311
REMARK  137  A    between atoms: _315  and  _317
REMARK  138  A    between atoms: _317  and  _318
REMARK  139  A    between atoms: _317  and  _320
REMARK  140  A    between atoms: _320  and  _321
REMARK  141  A    between atoms: _327  and  _329
REMARK  142  A    between atoms: _329  and  _330
REMARK  143  A    between atoms: _332  and  _334
REMARK  144  A    between atoms: _334  and  _335
REMARK  145  A    between atoms: _334  and  _337
REMARK  146  A    between atoms: _337  and  _338
REMARK  147  A    between atoms: _343  and  _345
REMARK  148  A    between atoms: _345  and  _346
REMARK  149  A    between atoms: _348  and  _350
REMARK  150  A    between atoms: _350  and  _351
REMARK  151  A    between atoms: _350  and  _353
REMARK  152  A    between atoms: _353  and  _354
REMARK  153  A    between atoms: _354  and  _355
REMARK  154  A    between atoms: _357  and  _359
REMARK  155  A    between atoms: _359  and  _360
REMARK  156  A    between atoms: _359  and  _362
REMARK  157  A    between atoms: _362  and  _363
REMARK  158  A    between atoms: _369  and  _371
REMARK  159  A    between atoms: _371  and  _372
REMARK  160  A    between atoms: _371  and  _374
REMARK  161  A    between atoms: _374  and  _375
REMARK  162  A    between atoms: _378  and  _380
REMARK  163  A    between atoms: _380  and  _381
REMARK  164  A    between atoms: _380  and  _383
REMARK  165  A    between atoms: _383  and  _384
REMARK  166  A    between atoms: _384  and  _385
REMARK  167  A    between atoms: _385  and  _386
REMARK  168  A    between atoms: _386  and  _387
REMARK  169  A    between atoms: _391  and  _393
REMARK  170  A    between atoms: _393  and  _394
REMARK  171  A    between atoms: _393  and  _396
REMARK  172  A    between atoms: _398  and  _400
REMARK  173  A    between atoms: _400  and  _401
REMARK  174  A    between atoms: _400  and  _403
REMARK  175  A    between atoms: _403  and  _404
REMARK  176  A    between atoms: _407  and  _409
REMARK  177  A    between atoms: _409  and  _410
REMARK  178  A    between atoms: _409  and  _412
REMARK  179  A    between atoms: _412  and  _413
REMARK  180  A    between atoms: _418  and  _420
REMARK  181  A    between atoms: _420  and  _421
REMARK  182  A    between atoms: _420  and  _423
REMARK  183  A    between atoms: _423  and  _424
REMARK  184  A    between atoms: _424  and  _425
REMARK  185  A    between atoms: _425  and  _426
REMARK  186  A    between atoms: _435  and  _437
REMARK  187  A    between atoms: _437  and  _438
REMARK  188  A    between atoms: _437  and  _440
REMARK  189  A    between atoms: _440  and  _441
REMARK  190  A    between atoms: _444  and  _446
REMARK  191  A    between atoms: _446  and  _447
REMARK  192  A    between atoms: _446  and  _449
REMARK  193  A    between atoms: _449  and  _450
REMARK  194  A    between atoms: _455  and  _457
REMARK  195  A    between atoms: _457  and  _458
REMARK  196  A    between atoms: _457  and  _460
REMARK  197  A    between atoms: _460  and  _461
REMARK  198  A    between atoms: _464  and  _466
REMARK  199  A    between atoms: _466  and  _467
REMARK  200  A    between atoms: _466  and  _469
REMARK  201  A    between atoms: _469  and  _470
REMARK  202  A    between atoms: _473  and  _475
REMARK  203  A    between atoms: _475  and  _476
REMARK  204  A    between atoms: _475  and  _478
REMARK  205  A    between atoms: _478  and  _479
REMARK  206  A    between atoms: _481  and  _483
REMARK  207  A    between atoms: _483  and  _484
REMARK  208  A    between atoms: _483  and  _486
REMARK  209  A    between atoms: _486  and  _487
REMARK  210  A    between atoms: _487  and  _488
REMARK  211  A    between atoms: _488  and  _489
REMARK  212  A    between atoms: _489  and  _490
REMARK  213  A    between atoms: _494  and  _496
REMARK  214  A    between atoms: _496  and  _497
REMARK  215  A    between atoms: _496  and  _499
REMARK  216  A    between atoms: _499  and  _500
REMARK  217  A    between atoms: _503  and  _505
REMARK  218  A    between atoms: _505  and  _506
REMARK  219  A    between atoms: _505  and  _508
REMARK  220  A    between atoms: _510  and  _512
REMARK  221  A    between atoms: _512  and  _513
REMARK  222  A    between atoms: _512  and  _515
REMARK  223  A    between atoms: _515  and  _516
REMARK  224  A    between atoms: _519  and  _521
REMARK  225  A    between atoms: _521  and  _522
REMARK  226  A    between atoms: _521  and  _524
REMARK  227  A    between atoms: _524  and  _525
REMARK  228  A    between atoms: _531  and  _533
REMARK  229  A    between atoms: _533  and  _534
REMARK  230  A    between atoms: _536  and  _538
REMARK  231  A    between atoms: _538  and  _539
REMARK  232  A    between atoms: _538  and  _541
REMARK  233  A    between atoms: _541  and  _542
REMARK                            x       y       z     vdW  Elec       q    Type
REMARK                         _______ _______ _______ _____ _____    ______ ____
ROOT
ATOM      1  O   HOH     1      38.747  50.709  16.575  0.00  0.00    +0.000 OA
ENDROOT
TORSDOF 0
REMARK  Name = ../refined-set-2016/2qu6/2qu6_pocket.pdb
REMARK  233 active torsions:
REMARK  status: ('A' for Active; 'I' for Inactive)
REMARK    1  A    between atoms: _1  and  _3
REMARK    2  A    between atoms: _3  and  _4
REMARK    3  A    between atoms: _3  and  _6
REMARK    4  A    between atoms: _6  and  _7
REMARK    5  A    between atoms: _7  and  _8
REMARK    6  A    between atoms: _8  and  _9
REMARK    7  A    between atoms: _9  and  _10
REMARK    8  A    between atoms: _15  and  _16
REMARK    9  A    between atoms: _21  and  _23
REMARK   10  A    between atoms: _23  and  _24
REMARK   11  A    between atoms: _23  and  _26
REMARK   12  A    between atoms: _26  and  _27
REMARK   13  A    between atoms: _30  and  _32
REMARK   14  A    between atoms: _32  and  _33
REMARK   15  A    between atoms: _32  and  _35
REMARK   16  A    between atoms: _35  and  _36
REMARK   17  A    between atoms: _36  and  _37
REMARK   18  A    between atoms: _42  and  _44
REMARK   19  A    between atoms: _44  and  _45
REMARK   20  A    between atoms: _44  and  _47
REMARK   21  A    between atoms: _50  and  _52
REMARK   22  A    between atoms: _52  and  _53
REMARK   23  A    between atoms: _52  and  _55
REMARK   24  A    between atoms: _55  and  _56
REMARK   25  A    between atoms: _59  and  _61
REMARK   26  A    between atoms: _61  and  _62
REMARK   27  A    between atoms: _61  and  _64
REMARK   28  A    between atoms: _64  and  _65
REMARK   29  A    between atoms: _65  and  _66
REMARK   30  A    between atoms: _69  and  _71
REMARK   31  A    between atoms: _71  and  _72
REMARK   32  A    between atoms: _71  and  _74
REMARK   33  A    between atoms: _74  and  _75
REMARK   34  A    between atoms: _78  and  _80
REMARK   35  A    between atoms: _80  and  _81
REMARK   36  A    between atoms: _80  and  _83
REMARK   37  A    between atoms: _86  and  _88
REMARK   38  A    between atoms: _88  and  _89
REMARK   39  A    between atoms: _92  and  _94
REMARK   40  A    between atoms: _94  and  _95
REMARK   41  A    between atoms: _94  and  _97
REMARK   42  A    between atoms: _100  and  _102
REMARK   43  A    between atoms: _102  and  _103
REMARK   44  A    between atoms: _102  and  _105
REMARK   45  A    between atoms: _105  and  _106
REMARK   46  A    between atoms: _106  and  _107
REMARK   47  A    between atoms: _107  and  _108
REMARK   48  A    between atoms: _108  and  _109
REMARK   49  A    between atoms: _113  and  _115
REMARK   50  A    between atoms: _115  and  _116
REMARK   51  A    between atoms: _115  and  _118
REMARK   52  A    between atoms: _118  and  _119
REMARK   53  A    between atoms: _119  and  _120
REMARK   54  A    between atoms: _122  and  _124
REMARK   55  A    between atoms: _124  and  _125
REMARK   56  A    between atoms: _128  and  _130
REMARK   57  A    between atoms: _130  and  _131
REMARK   58  A    between atoms: _130  and  _133
REMARK   59  A    between atoms: _133  and  _134
REMARK   60  A    between atoms: _137  and  _139
REMARK   61  A    between atoms: _139  and  _140
REMARK   62  A    between atoms: _139  and  _142
REMARK   63  A    between atoms: _142  and  _143
REMARK   64  A    between atoms: _145  and  _147
REMARK   65  A    between atoms: _147  and  _148
REMARK   66  A    between atoms: _147  and  _150
REMARK   67  A    between atoms: _150  and  _151
REMARK   68  A    between atoms: _151  and  _152
REMARK   69  A    between atoms: _155  and  _157
REMARK   70  A    between atoms: _157  and  _158
REMARK   71  A    between atoms: _157  and  _160
REMARK   72  A    between atoms: _160  and  _161
REMARK   73  A    between atoms: _164  and  _166
REMARK   74  A    between atoms: _166  and  _167
REMARK   75  A    between atoms: _166  and  _169
REMARK   76  A    between atoms: _169  and  _170
REMARK   77  A    between atoms: _173  and  _175
REMARK   78  A    between atoms: _175  and  _176
REMARK   79  A    between atoms: _175  and  _178
REMARK   80  A    between atoms: _178  and  _179
REMARK   81  A    between atoms: _182  and  _184
REMARK   82  A    between atoms: _184  and  _185
REMARK   83  A    between atoms: _184  and  _187
REMARK   84  A    between atoms: _187  and  _188
REMARK   85  A    between atoms: _191  and  _193
REMARK   86  A    between atoms: _193  and  _194
REMARK   87  A    between atoms: _193  and  _196
REMARK   88  A    between atoms: _196  and  _197
REMARK   89  A    between atoms: _202  and  _204
REMARK   90  A    between atoms: _204  and  _205
REMARK   91  A    between atoms: _204  and  _207
REMARK   92  A    between atoms: _210  and  _212
REMARK   93  A    between atoms: _212  and  _213
REMARK   94  A    between atoms: _212  and  _215
REMARK   95  A    between atoms: _218  and  _220
REMARK   96  A    between atoms: _220  and  _221
REMARK   97  A    between atoms: _220  and  _223
REMARK   98  A    between atoms: _223  and  _224
REMARK   99  A    between atoms: _229  and  _231
REMARK  100  A    between atoms: _231  and  _232
REMARK  101  A    between atoms: _231  and  _234
REMARK  102  A    between atoms: _234  and  _235
REMARK  103  A    between atoms: _238  and  _240
REMARK  104  A    between atoms: _240  and  _241
REMARK  105  A    between atoms: _240  and  _243
REMARK  106  A    between atoms: _243  and  _244
REMARK  107  A    between atoms: _247  and  _249
REMARK  108  A    between atoms: _249  and  _250
REMARK  109  A    between atoms: _249  and  _252
REMARK  110  A    between atoms: _255  and  _257
REMARK  111  A    between atoms: _257  and  _258
REMARK  112  A    between atoms: _257  and  _260
REMARK  113  A    between atoms: _260  and  _261
REMARK  114  A    between atoms: _264  and  _266
REMARK  115  A    between atoms: _266  and  _267
REMARK  116  A    between atoms: _266  and  _269
REMARK  117  A    between atoms: _269  and  _270
REMARK  118  A    between atoms: _273  and  _275
REMARK  119  A    between atoms: _275  and  _276
REMARK  120  A    between atoms: _275  and  _278
REMARK  121  A    between atoms: _278  and  _279
REMARK  122  A    between atoms: _279  and  _280
REMARK  123  A    between atoms: _283  and  _285
REMARK  124  A    between atoms: _285  and  _286
REMARK  125  A    between atoms: _285  and  _288
REMARK  126  A    between atoms: _288  and  _289
REMARK  127  A    between atoms: _295  and  _297
REMARK  128  A    between atoms: _297  and  _298
REMARK  129  A    between atoms: _297  and  _300
REMARK  130  A    between atoms: _302  and  _304
REMARK  131  A    between atoms: _304  and  _305
REMARK  132  A    between atoms: _304  and  _307
REMARK  133  A    between atoms: _307  and  _308
REMARK  134  A    between atoms: _308  and  _309
REMARK  135  A    between atoms: _309  and  _310
REMARK  136  A    between atoms: _310  and  _311
REMARK  137  A    between atoms: _315  and  _317
REMARK  138  A    between atoms: _317  and  _318
REMARK  139  A    between atoms: _317  and  _320
REMARK  140  A    between atoms: _320  and  _321
REMARK  141  A    between atoms: _327  and  _329
REMARK  142  A    between atoms: _329  and  _330
REMARK  143  A    between atoms: _332  and  _334
REMARK  144  A    between atoms: _334  and  _335
REMARK  145  A    between atoms: _334  and  _337
REMARK  146  A    between atoms: _337  and  _338
REMARK  147  A    between atoms: _343  and  _345
REMARK  148  A    between atoms: _345  and  _346
REMARK  149  A    between atoms: _348  and  _350
REMARK  150  A    between atoms: _350  and  _351
REMARK  151  A    between atoms: _350  and  _353
REMARK  152  A    between atoms: _353  and  _354
REMARK  153  A    between atoms: _354  and  _355
REMARK  154  A    between atoms: _357  and  _359
REMARK  155  A    between atoms: _359  and  _360
REMARK  156  A    between atoms: _359  and  _362
REMARK  157  A    between atoms: _362  and  _363
REMARK  158  A    between atoms: _369  and  _371
REMARK  159  A    between atoms: _371  and  _372
REMARK  160  A    between atoms: _371  and  _374
REMARK  161  A    between atoms: _374  and  _375
REMARK  162  A    between atoms: _378  and  _380
REMARK  163  A    between atoms: _380  and  _381
REMARK  164  A    between atoms: _380  and  _383
REMARK  165  A    between atoms: _383  and  _384
REMARK  166  A    between atoms: _384  and  _385
REMARK  167  A    between atoms: _385  and  _386
REMARK  168  A    between atoms: _386  and  _387
REMARK  169  A    between atoms: _391  and  _393
REMARK  170  A    between atoms: _393  and  _394
REMARK  171  A    between atoms: _393  and  _396
REMARK  172  A    between atoms: _398  and  _400
REMARK  173  A    between atoms: _400  and  _401
REMARK  174  A    between atoms: _400  and  _403
REMARK  175  A    between atoms: _403  and  _404
REMARK  176  A    between atoms: _407  and  _409
REMARK  177  A    between atoms: _409  and  _410
REMARK  178  A    between atoms: _409  and  _412
REMARK  179  A    between atoms: _412  and  _413
REMARK  180  A    between atoms: _418  and  _420
REMARK  181  A    between atoms: _420  and  _421
REMARK  182  A    between atoms: _420  and  _423
REMARK  183  A    between atoms: _423  and  _424
REMARK  184  A    between atoms: _424  and  _425
REMARK  185  A    between atoms: _425  and  _426
REMARK  186  A    between atoms: _435  and  _437
REMARK  187  A    between atoms: _437  and  _438
REMARK  188  A    between atoms: _437  and  _440
REMARK  189  A    between atoms: _440  and  _441
REMARK  190  A    between atoms: _444  and  _446
REMARK  191  A    between atoms: _446  and  _447
REMARK  192  A    between atoms: _446  and  _449
REMARK  193  A    between atoms: _449  and  _450
REMARK  194  A    between atoms: _455  and  _457
REMARK  195  A    between atoms: _457  and  _458
REMARK  196  A    between atoms: _457  and  _460
REMARK  197  A    between atoms: _460  and  _461
REMARK  198  A    between atoms: _464  and  _466
REMARK  199  A    between atoms: _466  and  _467
REMARK  200  A    between atoms: _466  and  _469
REMARK  201  A    between atoms: _469  and  _470
REMARK  202  A    between atoms: _473  and  _475
REMARK  203  A    between atoms: _475  and  _476
REMARK  204  A    between atoms: _475  and  _478
REMARK  205  A    between atoms: _478  and  _479
REMARK  206  A    between atoms: _481  and  _483
REMARK  207  A    between atoms: _483  and  _484
REMARK  208  A    between atoms: _483  and  _486
REMARK  209  A    between atoms: _486  and  _487
REMARK  210  A    between atoms: _487  and  _488
REMARK  211  A    between atoms: _488  and  _489
REMARK  212  A    between atoms: _489  and  _490
REMARK  213  A    between atoms: _494  and  _496
REMARK  214  A    between atoms: _496  and  _497
REMARK  215  A    between atoms: _496  and  _499
REMARK  216  A    between atoms: _499  and  _500
REMARK  217  A    between atoms: _503  and  _505
REMARK  218  A    between atoms: _505  and  _506
REMARK  219  A    between atoms: _505  and  _508
REMARK  220  A    between atoms: _510  and  _512
REMARK  221  A    between atoms: _512  and  _513
REMARK  222  A    between atoms: _512  and  _515
REMARK  223  A    between atoms: _515  and  _516
REMARK  224  A    between atoms: _519  and  _521
REMARK  225  A    between atoms: _521  and  _522
REMARK  226  A    between atoms: _521  and  _524
REMARK  227  A    between atoms: _524  and  _525
REMARK  228  A    between atoms: _531  and  _533
REMARK  229  A    between atoms: _533  and  _534
REMARK  230  A    between atoms: _536  and  _538
REMARK  231  A    between atoms: _538  and  _539
REMARK  232  A    between atoms: _538  and  _541
REMARK  233  A    between atoms: _541  and  _542
REMARK                            x       y       z     vdW  Elec       q    Type
REMARK                         _______ _______ _______ _____ _____    ______ ____
ROOT
ATOM      1  O   HOH     1      36.725  47.224  16.850  0.00  0.00    +0.000 OA
ENDROOT
TORSDOF 0
REMARK  Name = ../refined-set-2016/2qu6/2qu6_pocket.pdb
REMARK  233 active torsions:
REMARK  status: ('A' for Active; 'I' for Inactive)
REMARK    1  A    between atoms: _1  and  _3
REMARK    2  A    between atoms: _3  and  _4
REMARK    3  A    between atoms: _3  and  _6
REMARK    4  A    between atoms: _6  and  _7
REMARK    5  A    between atoms: _7  and  _8
REMARK    6  A    between atoms: _8  and  _9
REMARK    7  A    between atoms: _9  and  _10
REMARK    8  A    between atoms: _15  and  _16
REMARK    9  A    between atoms: _21  and  _23
REMARK   10  A    between atoms: _23  and  _24
REMARK   11  A    between atoms: _23  and  _26
REMARK   12  A    between atoms: _26  and  _27
REMARK   13  A    between atoms: _30  and  _32
REMARK   14  A    between atoms: _32  and  _33
REMARK   15  A    between atoms: _32  and  _35
REMARK   16  A    between atoms: _35  and  _36
REMARK   17  A    between atoms: _36  and  _37
REMARK   18  A    between atoms: _42  and  _44
REMARK   19  A    between atoms: _44  and  _45
REMARK   20  A    between atoms: _44  and  _47
REMARK   21  A    between atoms: _50  and  _52
REMARK   22  A    between atoms: _52  and  _53
REMARK   23  A    between atoms: _52  and  _55
REMARK   24  A    between atoms: _55  and  _56
REMARK   25  A    between atoms: _59  and  _61
REMARK   26  A    between atoms: _61  and  _62
REMARK   27  A    between atoms: _61  and  _64
REMARK   28  A    between atoms: _64  and  _65
REMARK   29  A    between atoms: _65  and  _66
REMARK   30  A    between atoms: _69  and  _71
REMARK   31  A    between atoms: _71  and  _72
REMARK   32  A    between atoms: _71  and  _74
REMARK   33  A    between atoms: _74  and  _75
REMARK   34  A    between atoms: _78  and  _80
REMARK   35  A    between atoms: _80  and  _81
REMARK   36  A    between atoms: _80  and  _83
REMARK   37  A    between atoms: _86  and  _88
REMARK   38  A    between atoms: _88  and  _89
REMARK   39  A    between atoms: _92  and  _94
REMARK   40  A    between atoms: _94  and  _95
REMARK   41  A    between atoms: _94  and  _97
REMARK   42  A    between atoms: _100  and  _102
REMARK   43  A    between atoms: _102  and  _103
REMARK   44  A    between atoms: _102  and  _105
REMARK   45  A    between atoms: _105  and  _106
REMARK   46  A    between atoms: _106  and  _107
REMARK   47  A    between atoms: _107  and  _108
REMARK   48  A    between atoms: _108  and  _109
REMARK   49  A    between atoms: _113  and  _115
REMARK   50  A    between atoms: _115  and  _116
REMARK   51  A    between atoms: _115  and  _118
REMARK   52  A    between atoms: _118  and  _119
REMARK   53  A    between atoms: _119  and  _120
REMARK   54  A    between atoms: _122  and  _124
REMARK   55  A    between atoms: _124  and  _125
REMARK   56  A    between atoms: _128  and  _130
REMARK   57  A    between atoms: _130  and  _131
REMARK   58  A    between atoms: _130  and  _133
REMARK   59  A    between atoms: _133  and  _134
REMARK   60  A    between atoms: _137  and  _139
REMARK   61  A    between atoms: _139  and  _140
REMARK   62  A    between atoms: _139  and  _142
REMARK   63  A    between atoms: _142  and  _143
REMARK   64  A    between atoms: _145  and  _147
REMARK   65  A    between atoms: _147  and  _148
REMARK   66  A    between atoms: _147  and  _150
REMARK   67  A    between atoms: _150  and  _151
REMARK   68  A    between atoms: _151  and  _152
REMARK   69  A    between atoms: _155  and  _157
REMARK   70  A    between atoms: _157  and  _158
REMARK   71  A    between atoms: _157  and  _160
REMARK   72  A    between atoms: _160  and  _161
REMARK   73  A    between atoms: _164  and  _166
REMARK   74  A    between atoms: _166  and  _167
REMARK   75  A    between atoms: _166  and  _169
REMARK   76  A    between atoms: _169  and  _170
REMARK   77  A    between atoms: _173  and  _175
REMARK   78  A    between atoms: _175  and  _176
REMARK   79  A    between atoms: _175  and  _178
REMARK   80  A    between atoms: _178  and  _179
REMARK   81  A    between atoms: _182  and  _184
REMARK   82  A    between atoms: _184  and  _185
REMARK   83  A    between atoms: _184  and  _187
REMARK   84  A    between atoms: _187  and  _188
REMARK   85  A    between atoms: _191  and  _193
REMARK   86  A    between atoms: _193  and  _194
REMARK   87  A    between atoms: _193  and  _196
REMARK   88  A    between atoms: _196  and  _197
REMARK   89  A    between atoms: _202  and  _204
REMARK   90  A    between atoms: _204  and  _205
REMARK   91  A    between atoms: _204  and  _207
REMARK   92  A    between atoms: _210  and  _212
REMARK   93  A    between atoms: _212  and  _213
REMARK   94  A    between atoms: _212  and  _215
REMARK   95  A    between atoms: _218  and  _220
REMARK   96  A    between atoms: _220  and  _221
REMARK   97  A    between atoms: _220  and  _223
REMARK   98  A    between atoms: _223  and  _224
REMARK   99  A    between atoms: _229  and  _231
REMARK  100  A    between atoms: _231  and  _232
REMARK  101  A    between atoms: _231  and  _234
REMARK  102  A    between atoms: _234  and  _235
REMARK  103  A    between atoms: _238  and  _240
REMARK  104  A    between atoms: _240  and  _241
REMARK  105  A    between atoms: _240  and  _243
REMARK  106  A    between atoms: _243  and  _244
REMARK  107  A    between atoms: _247  and  _249
REMARK  108  A    between atoms: _249  and  _250
REMARK  109  A    between atoms: _249  and  _252
REMARK  110  A    between atoms: _255  and  _257
REMARK  111  A    between atoms: _257  and  _258
REMARK  112  A    between atoms: _257  and  _260
REMARK  113  A    between atoms: _260  and  _261
REMARK  114  A    between atoms: _264  and  _266
REMARK  115  A    between atoms: _266  and  _267
REMARK  116  A    between atoms: _266  and  _269
REMARK  117  A    between atoms: _269  and  _270
REMARK  118  A    between atoms: _273  and  _275
REMARK  119  A    between atoms: _275  and  _276
REMARK  120  A    between atoms: _275  and  _278
REMARK  121  A    between atoms: _278  and  _279
REMARK  122  A    between atoms: _279  and  _280
REMARK  123  A    between atoms: _283  and  _285
REMARK  124  A    between atoms: _285  and  _286
REMARK  125  A    between atoms: _285  and  _288
REMARK  126  A    between atoms: _288  and  _289
REMARK  127  A    between atoms: _295  and  _297
REMARK  128  A    between atoms: _297  and  _298
REMARK  129  A    between atoms: _297  and  _300
REMARK  130  A    between atoms: _302  and  _304
REMARK  131  A    between atoms: _304  and  _305
REMARK  132  A    between atoms: _304  and  _307
REMARK  133  A    between atoms: _307  and  _308
REMARK  134  A    between atoms: _308  and  _309
REMARK  135  A    between atoms: _309  and  _310
REMARK  136  A    between atoms: _310  and  _311
REMARK  137  A    between atoms: _315  and  _317
REMARK  138  A    between atoms: _317  and  _318
REMARK  139  A    between atoms: _317  and  _320
REMARK  140  A    between atoms: _320  and  _321
REMARK  141  A    between atoms: _327  and  _329
REMARK  142  A    between atoms: _329  and  _330
REMARK  143  A    between atoms: _332  and  _334
REMARK  144  A    between atoms: _334  and  _335
REMARK  145  A    between atoms: _334  and  _337
REMARK  146  A    between atoms: _337  and  _338
REMARK  147  A    between atoms: _343  and  _345
REMARK  148  A    between atoms: _345  and  _346
REMARK  149  A    between atoms: _348  and  _350
REMARK  150  A    between atoms: _350  and  _351
REMARK  151  A    between atoms: _350  and  _353
REMARK  152  A    between atoms: _353  and  _354
REMARK  153  A    between atoms: _354  and  _355
REMARK  154  A    between atoms: _357  and  _359
REMARK  155  A    between atoms: _359  and  _360
REMARK  156  A    between atoms: _359  and  _362
REMARK  157  A    between atoms: _362  and  _363
REMARK  158  A    between atoms: _369  and  _371
REMARK  159  A    between atoms: _371  and  _372
REMARK  160  A    between atoms: _371  and  _374
REMARK  161  A    between atoms: _374  and  _375
REMARK  162  A    between atoms: _378  and  _380
REMARK  163  A    between atoms: _380  and  _381
REMARK  164  A    between atoms: _380  and  _383
REMARK  165  A    between atoms: _383  and  _384
REMARK  166  A    between atoms: _384  and  _385
REMARK  167  A    between atoms: _385  and  _386
REMARK  168  A    between atoms: _386  and  _387
REMARK  169  A    between atoms: _391  and  _393
REMARK  170  A    between atoms: _393  and  _394
REMARK  171  A    between atoms: _393  and  _396
REMARK  172  A    between atoms: _398  and  _400
REMARK  173  A    between atoms: _400  and  _401
REMARK  174  A    between atoms: _400  and  _403
REMARK  175  A    between atoms: _403  and  _404
REMARK  176  A    between atoms: _407  and  _409
REMARK  177  A    between atoms: _409  and  _410
REMARK  178  A    between atoms: _409  and  _412
REMARK  179  A    between atoms: _412  and  _413
REMARK  180  A    between atoms: _418  and  _420
REMARK  181  A    between atoms: _420  and  _421
REMARK  182  A    between atoms: _420  and  _423
REMARK  183  A    between atoms: _423  and  _424
REMARK  184  A    between atoms: _424  and  _425
REMARK  185  A    between atoms: _425  and  _426
REMARK  186  A    between atoms: _435  and  _437
REMARK  187  A    between atoms: _437  and  _438
REMARK  188  A    between atoms: _437  and  _440
REMARK  189  A    between atoms: _440  and  _441
REMARK  190  A    between atoms: _444  and  _446
REMARK  191  A    between atoms: _446  and  _447
REMARK  192  A    between atoms: _446  and  _449
REMARK  193  A    between atoms: _449  and  _450
REMARK  194  A    between atoms: _455  and  _457
REMARK  195  A    between atoms: _457  and  _458
REMARK  196  A    between atoms: _457  and  _460
REMARK  197  A    between atoms: _460  and  _461
REMARK  198  A    between atoms: _464  and  _466
REMARK  199  A    between atoms: _466  and  _467
REMARK  200  A    between atoms: _466  and  _469
REMARK  201  A    between atoms: _469  and  _470
REMARK  202  A    between atoms: _473  and  _475
REMARK  203  A    between atoms: _475  and  _476
REMARK  204  A    between atoms: _475  and  _478
REMARK  205  A    between atoms: _478  and  _479
REMARK  206  A    between atoms: _481  and  _483
REMARK  207  A    between atoms: _483  and  _484
REMARK  208  A    between atoms: _483  and  _486
REMARK  209  A    between atoms: _486  and  _487
REMARK  210  A    between atoms: _487  and  _488
REMARK  211  A    between atoms: _488  and  _489
REMARK  212  A    between atoms: _489  and  _490
REMARK  213  A    between atoms: _494  and  _496
REMARK  214  A    between atoms: _496  and  _497
REMARK  215  A    between atoms: _496  and  _499
REMARK  216  A    between atoms: _499  and  _500
REMARK  217  A    between atoms: _503  and  _505
REMARK  218  A    between atoms: _505  and  _506
REMARK  219  A    between atoms: _505  and  _508
REMARK  220  A    between atoms: _510  and  _512
REMARK  221  A    between atoms: _512  and  _513
REMARK  222  A    between atoms: _512  and  _515
REMARK  223  A    between atoms: _515  and  _516
REMARK  224  A    between atoms: _519  and  _521
REMARK  225  A    between atoms: _521  and  _522
REMARK  226  A    between atoms: _521  and  _524
REMARK  227  A    between atoms: _524  and  _525
REMARK  228  A    between atoms: _531  and  _533
REMARK  229  A    between atoms: _533  and  _534
REMARK  230  A    between atoms: _536  and  _538
REMARK  231  A    between atoms: _538  and  _539
REMARK  232  A    between atoms: _538  and  _541
REMARK  233  A    between atoms: _541  and  _542
REMARK                            x       y       z     vdW  Elec       q    Type
REMARK                         _______ _______ _______ _____ _____    ______ ____
ROOT
ATOM      1  O   HOH     1      37.887  48.812  12.129  0.00  0.00    +0.000 OA
ENDROOT
TORSDOF 0
REMARK  Name = ../refined-set-2016/2qu6/2qu6_pocket.pdb
REMARK  233 active torsions:
REMARK  status: ('A' for Active; 'I' for Inactive)
REMARK    1  A    between atoms: _1  and  _3
REMARK    2  A    between atoms: _3  and  _4
REMARK    3  A    between atoms: _3  and  _6
REMARK    4  A    between atoms: _6  and  _7
REMARK    5  A    between atoms: _7  and  _8
REMARK    6  A    between atoms: _8  and  _9
REMARK    7  A    between atoms: _9  and  _10
REMARK    8  A    between atoms: _15  and  _16
REMARK    9  A    between atoms: _21  and  _23
REMARK   10  A    between atoms: _23  and  _24
REMARK   11  A    between atoms: _23  and  _26
REMARK   12  A    between atoms: _26  and  _27
REMARK   13  A    between atoms: _30  and  _32
REMARK   14  A    between atoms: _32  and  _33
REMARK   15  A    between atoms: _32  and  _35
REMARK   16  A    between atoms: _35  and  _36
REMARK   17  A    between atoms: _36  and  _37
REMARK   18  A    between atoms: _42  and  _44
REMARK   19  A    between atoms: _44  and  _45
REMARK   20  A    between atoms: _44  and  _47
REMARK   21  A    between atoms: _50  and  _52
REMARK   22  A    between atoms: _52  and  _53
REMARK   23  A    between atoms: _52  and  _55
REMARK   24  A    between atoms: _55  and  _56
REMARK   25  A    between atoms: _59  and  _61
REMARK   26  A    between atoms: _61  and  _62
REMARK   27  A    between atoms: _61  and  _64
REMARK   28  A    between atoms: _64  and  _65
REMARK   29  A    between atoms: _65  and  _66
REMARK   30  A    between atoms: _69  and  _71
REMARK   31  A    between atoms: _71  and  _72
REMARK   32  A    between atoms: _71  and  _74
REMARK   33  A    between atoms: _74  and  _75
REMARK   34  A    between atoms: _78  and  _80
REMARK   35  A    between atoms: _80  and  _81
REMARK   36  A    between atoms: _80  and  _83
REMARK   37  A    between atoms: _86  and  _88
REMARK   38  A    between atoms: _88  and  _89
REMARK   39  A    between atoms: _92  and  _94
REMARK   40  A    between atoms: _94  and  _95
REMARK   41  A    between atoms: _94  and  _97
REMARK   42  A    between atoms: _100  and  _102
REMARK   43  A    between atoms: _102  and  _103
REMARK   44  A    between atoms: _102  and  _105
REMARK   45  A    between atoms: _105  and  _106
REMARK   46  A    between atoms: _106  and  _107
REMARK   47  A    between atoms: _107  and  _108
REMARK   48  A    between atoms: _108  and  _109
REMARK   49  A    between atoms: _113  and  _115
REMARK   50  A    between atoms: _115  and  _116
REMARK   51  A    between atoms: _115  and  _118
REMARK   52  A    between atoms: _118  and  _119
REMARK   53  A    between atoms: _119  and  _120
REMARK   54  A    between atoms: _122  and  _124
REMARK   55  A    between atoms: _124  and  _125
REMARK   56  A    between atoms: _128  and  _130
REMARK   57  A    between atoms: _130  and  _131
REMARK   58  A    between atoms: _130  and  _133
REMARK   59  A    between atoms: _133  and  _134
REMARK   60  A    between atoms: _137  and  _139
REMARK   61  A    between atoms: _139  and  _140
REMARK   62  A    between atoms: _139  and  _142
REMARK   63  A    between atoms: _142  and  _143
REMARK   64  A    between atoms: _145  and  _147
REMARK   65  A    between atoms: _147  and  _148
REMARK   66  A    between atoms: _147  and  _150
REMARK   67  A    between atoms: _150  and  _151
REMARK   68  A    between atoms: _151  and  _152
REMARK   69  A    between atoms: _155  and  _157
REMARK   70  A    between atoms: _157  and  _158
REMARK   71  A    between atoms: _157  and  _160
REMARK   72  A    between atoms: _160  and  _161
REMARK   73  A    between atoms: _164  and  _166
REMARK   74  A    between atoms: _166  and  _167
REMARK   75  A    between atoms: _166  and  _169
REMARK   76  A    between atoms: _169  and  _170
REMARK   77  A    between atoms: _173  and  _175
REMARK   78  A    between atoms: _175  and  _176
REMARK   79  A    between atoms: _175  and  _178
REMARK   80  A    between atoms: _178  and  _179
REMARK   81  A    between atoms: _182  and  _184
REMARK   82  A    between atoms: _184  and  _185
REMARK   83  A    between atoms: _184  and  _187
REMARK   84  A    between atoms: _187  and  _188
REMARK   85  A    between atoms: _191  and  _193
REMARK   86  A    between atoms: _193  and  _194
REMARK   87  A    between atoms: _193  and  _196
REMARK   88  A    between atoms: _196  and  _197
REMARK   89  A    between atoms: _202  and  _204
REMARK   90  A    between atoms: _204  and  _205
REMARK   91  A    between atoms: _204  and  _207
REMARK   92  A    between atoms: _210  and  _212
REMARK   93  A    between atoms: _212  and  _213
REMARK   94  A    between atoms: _212  and  _215
REMARK   95  A    between atoms: _218  and  _220
REMARK   96  A    between atoms: _220  and  _221
REMARK   97  A    between atoms: _220  and  _223
REMARK   98  A    between atoms: _223  and  _224
REMARK   99  A    between atoms: _229  and  _231
REMARK  100  A    between atoms: _231  and  _232
REMARK  101  A    between atoms: _231  and  _234
REMARK  102  A    between atoms: _234  and  _235
REMARK  103  A    between atoms: _238  and  _240
REMARK  104  A    between atoms: _240  and  _241
REMARK  105  A    between atoms: _240  and  _243
REMARK  106  A    between atoms: _243  and  _244
REMARK  107  A    between atoms: _247  and  _249
REMARK  108  A    between atoms: _249  and  _250
REMARK  109  A    between atoms: _249  and  _252
REMARK  110  A    between atoms: _255  and  _257
REMARK  111  A    between atoms: _257  and  _258
REMARK  112  A    between atoms: _257  and  _260
REMARK  113  A    between atoms: _260  and  _261
REMARK  114  A    between atoms: _264  and  _266
REMARK  115  A    between atoms: _266  and  _267
REMARK  116  A    between atoms: _266  and  _269
REMARK  117  A    between atoms: _269  and  _270
REMARK  118  A    between atoms: _273  and  _275
REMARK  119  A    between atoms: _275  and  _276
REMARK  120  A    between atoms: _275  and  _278
REMARK  121  A    between atoms: _278  and  _279
REMARK  122  A    between atoms: _279  and  _280
REMARK  123  A    between atoms: _283  and  _285
REMARK  124  A    between atoms: _285  and  _286
REMARK  125  A    between atoms: _285  and  _288
REMARK  126  A    between atoms: _288  and  _289
REMARK  127  A    between atoms: _295  and  _297
REMARK  128  A    between atoms: _297  and  _298
REMARK  129  A    between atoms: _297  and  _300
REMARK  130  A    between atoms: _302  and  _304
REMARK  131  A    between atoms: _304  and  _305
REMARK  132  A    between atoms: _304  and  _307
REMARK  133  A    between atoms: _307  and  _308
REMARK  134  A    between atoms: _308  and  _309
REMARK  135  A    between atoms: _309  and  _310
REMARK  136  A    between atoms: _310  and  _311
REMARK  137  A    between atoms: _315  and  _317
REMARK  138  A    between atoms: _317  and  _318
REMARK  139  A    between atoms: _317  and  _320
REMARK  140  A    between atoms: _320  and  _321
REMARK  141  A    between atoms: _327  and  _329
REMARK  142  A    between atoms: _329  and  _330
REMARK  143  A    between atoms: _332  and  _334
REMARK  144  A    between atoms: _334  and  _335
REMARK  145  A    between atoms: _334  and  _337
REMARK  146  A    between atoms: _337  and  _338
REMARK  147  A    between atoms: _343  and  _345
REMARK  148  A    between atoms: _345  and  _346
REMARK  149  A    between atoms: _348  and  _350
REMARK  150  A    between atoms: _350  and  _351
REMARK  151  A    between atoms: _350  and  _353
REMARK  152  A    between atoms: _353  and  _354
REMARK  153  A    between atoms: _354  and  _355
REMARK  154  A    between atoms: _357  and  _359
REMARK  155  A    between atoms: _359  and  _360
REMARK  156  A    between atoms: _359  and  _362
REMARK  157  A    between atoms: _362  and  _363
REMARK  158  A    between atoms: _369  and  _371
REMARK  159  A    between atoms: _371  and  _372
REMARK  160  A    between atoms: _371  and  _374
REMARK  161  A    between atoms: _374  and  _375
REMARK  162  A    between atoms: _378  and  _380
REMARK  163  A    between atoms: _380  and  _381
REMARK  164  A    between atoms: _380  and  _383
REMARK  165  A    between atoms: _383  and  _384
REMARK  166  A    between atoms: _384  and  _385
REMARK  167  A    between atoms: _385  and  _386
REMARK  168  A    between atoms: _386  and  _387
REMARK  169  A    between atoms: _391  and  _393
REMARK  170  A    between atoms: _393  and  _394
REMARK  171  A    between atoms: _393  and  _396
REMARK  172  A    between atoms: _398  and  _400
REMARK  173  A    between atoms: _400  and  _401
REMARK  174  A    between atoms: _400  and  _403
REMARK  175  A    between atoms: _403  and  _404
REMARK  176  A    between atoms: _407  and  _409
REMARK  177  A    between atoms: _409  and  _410
REMARK  178  A    between atoms: _409  and  _412
REMARK  179  A    between atoms: _412  and  _413
REMARK  180  A    between atoms: _418  and  _420
REMARK  181  A    between atoms: _420  and  _421
REMARK  182  A    between atoms: _420  and  _423
REMARK  183  A    between atoms: _423  and  _424
REMARK  184  A    between atoms: _424  and  _425
REMARK  185  A    between atoms: _425  and  _426
REMARK  186  A    between atoms: _435  and  _437
REMARK  187  A    between atoms: _437  and  _438
REMARK  188  A    between atoms: _437  and  _440
REMARK  189  A    between atoms: _440  and  _441
REMARK  190  A    between atoms: _444  and  _446
REMARK  191  A    between atoms: _446  and  _447
REMARK  192  A    between atoms: _446  and  _449
REMARK  193  A    between atoms: _449  and  _450
REMARK  194  A    between atoms: _455  and  _457
REMARK  195  A    between atoms: _457  and  _458
REMARK  196  A    between atoms: _457  and  _460
REMARK  197  A    between atoms: _460  and  _461
REMARK  198  A    between atoms: _464  and  _466
REMARK  199  A    between atoms: _466  and  _467
REMARK  200  A    between atoms: _466  and  _469
REMARK  201  A    between atoms: _469  and  _470
REMARK  202  A    between atoms: _473  and  _475
REMARK  203  A    between atoms: _475  and  _476
REMARK  204  A    between atoms: _475  and  _478
REMARK  205  A    between atoms: _478  and  _479
REMARK  206  A    between atoms: _481  and  _483
REMARK  207  A    between atoms: _483  and  _484
REMARK  208  A    between atoms: _483  and  _486
REMARK  209  A    between atoms: _486  and  _487
REMARK  210  A    between atoms: _487  and  _488
REMARK  211  A    between atoms: _488  and  _489
REMARK  212  A    between atoms: _489  and  _490
REMARK  213  A    between atoms: _494  and  _496
REMARK  214  A    between atoms: _496  and  _497
REMARK  215  A    between atoms: _496  and  _499
REMARK  216  A    between atoms: _499  and  _500
REMARK  217  A    between atoms: _503  and  _505
REMARK  218  A    between atoms: _505  and  _506
REMARK  219  A    between atoms: _505  and  _508
REMARK  220  A    between atoms: _510  and  _512
REMARK  221  A    between atoms: _512  and  _513
REMARK  222  A    between atoms: _512  and  _515
REMARK  223  A    between atoms: _515  and  _516
REMARK  224  A    between atoms: _519  and  _521
REMARK  225  A    between atoms: _521  and  _522
REMARK  226  A    between atoms: _521  and  _524
REMARK  227  A    between atoms: _524  and  _525
REMARK  228  A    between atoms: _531  and  _533
REMARK  229  A    between atoms: _533  and  _534
REMARK  230  A    between atoms: _536  and  _538
REMARK  231  A    between atoms: _538  and  _539
REMARK  232  A    between atoms: _538  and  _541
REMARK  233  A    between atoms: _541  and  _542
REMARK                            x       y       z     vdW  Elec       q    Type
REMARK                         _______ _______ _______ _____ _____    ______ ____
ROOT
ATOM      1  O   HOH     1      37.912  24.447   5.462  0.00  0.00    +0.000 OA
ENDROOT
TORSDOF 0
REMARK  Name = ../refined-set-2016/2qu6/2qu6_pocket.pdb
REMARK  233 active torsions:
REMARK  status: ('A' for Active; 'I' for Inactive)
REMARK    1  A    between atoms: _1  and  _3
REMARK    2  A    between atoms: _3  and  _4
REMARK    3  A    between atoms: _3  and  _6
REMARK    4  A    between atoms: _6  and  _7
REMARK    5  A    between atoms: _7  and  _8
REMARK    6  A    between atoms: _8  and  _9
REMARK    7  A    between atoms: _9  and  _10
REMARK    8  A    between atoms: _15  and  _16
REMARK    9  A    between atoms: _21  and  _23
REMARK   10  A    between atoms: _23  and  _24
REMARK   11  A    between atoms: _23  and  _26
REMARK   12  A    between atoms: _26  and  _27
REMARK   13  A    between atoms: _30  and  _32
REMARK   14  A    between atoms: _32  and  _33
REMARK   15  A    between atoms: _32  and  _35
REMARK   16  A    between atoms: _35  and  _36
REMARK   17  A    between atoms: _36  and  _37
REMARK   18  A    between atoms: _42  and  _44
REMARK   19  A    between atoms: _44  and  _45
REMARK   20  A    between atoms: _44  and  _47
REMARK   21  A    between atoms: _50  and  _52
REMARK   22  A    between atoms: _52  and  _53
REMARK   23  A    between atoms: _52  and  _55
REMARK   24  A    between atoms: _55  and  _56
REMARK   25  A    between atoms: _59  and  _61
REMARK   26  A    between atoms: _61  and  _62
REMARK   27  A    between atoms: _61  and  _64
REMARK   28  A    between atoms: _64  and  _65
REMARK   29  A    between atoms: _65  and  _66
REMARK   30  A    between atoms: _69  and  _71
REMARK   31  A    between atoms: _71  and  _72
REMARK   32  A    between atoms: _71  and  _74
REMARK   33  A    between atoms: _74  and  _75
REMARK   34  A    between atoms: _78  and  _80
REMARK   35  A    between atoms: _80  and  _81
REMARK   36  A    between atoms: _80  and  _83
REMARK   37  A    between atoms: _86  and  _88
REMARK   38  A    between atoms: _88  and  _89
REMARK   39  A    between atoms: _92  and  _94
REMARK   40  A    between atoms: _94  and  _95
REMARK   41  A    between atoms: _94  and  _97
REMARK   42  A    between atoms: _100  and  _102
REMARK   43  A    between atoms: _102  and  _103
REMARK   44  A    between atoms: _102  and  _105
REMARK   45  A    between atoms: _105  and  _106
REMARK   46  A    between atoms: _106  and  _107
REMARK   47  A    between atoms: _107  and  _108
REMARK   48  A    between atoms: _108  and  _109
REMARK   49  A    between atoms: _113  and  _115
REMARK   50  A    between atoms: _115  and  _116
REMARK   51  A    between atoms: _115  and  _118
REMARK   52  A    between atoms: _118  and  _119
REMARK   53  A    between atoms: _119  and  _120
REMARK   54  A    between atoms: _122  and  _124
REMARK   55  A    between atoms: _124  and  _125
REMARK   56  A    between atoms: _128  and  _130
REMARK   57  A    between atoms: _130  and  _131
REMARK   58  A    between atoms: _130  and  _133
REMARK   59  A    between atoms: _133  and  _134
REMARK   60  A    between atoms: _137  and  _139
REMARK   61  A    between atoms: _139  and  _140
REMARK   62  A    between atoms: _139  and  _142
REMARK   63  A    between atoms: _142  and  _143
REMARK   64  A    between atoms: _145  and  _147
REMARK   65  A    between atoms: _147  and  _148
REMARK   66  A    between atoms: _147  and  _150
REMARK   67  A    between atoms: _150  and  _151
REMARK   68  A    between atoms: _151  and  _152
REMARK   69  A    between atoms: _155  and  _157
REMARK   70  A    between atoms: _157  and  _158
REMARK   71  A    between atoms: _157  and  _160
REMARK   72  A    between atoms: _160  and  _161
REMARK   73  A    between atoms: _164  and  _166
REMARK   74  A    between atoms: _166  and  _167
REMARK   75  A    between atoms: _166  and  _169
REMARK   76  A    between atoms: _169  and  _170
REMARK   77  A    between atoms: _173  and  _175
REMARK   78  A    between atoms: _175  and  _176
REMARK   79  A    between atoms: _175  and  _178
REMARK   80  A    between atoms: _178  and  _179
REMARK   81  A    between atoms: _182  and  _184
REMARK   82  A    between atoms: _184  and  _185
REMARK   83  A    between atoms: _184  and  _187
REMARK   84  A    between atoms: _187  and  _188
REMARK   85  A    between atoms: _191  and  _193
REMARK   86  A    between atoms: _193  and  _194
REMARK   87  A    between atoms: _193  and  _196
REMARK   88  A    between atoms: _196  and  _197
REMARK   89  A    between atoms: _202  and  _204
REMARK   90  A    between atoms: _204  and  _205
REMARK   91  A    between atoms: _204  and  _207
REMARK   92  A    between atoms: _210  and  _212
REMARK   93  A    between atoms: _212  and  _213
REMARK   94  A    between atoms: _212  and  _215
REMARK   95  A    between atoms: _218  and  _220
REMARK   96  A    between atoms: _220  and  _221
REMARK   97  A    between atoms: _220  and  _223
REMARK   98  A    between atoms: _223  and  _224
REMARK   99  A    between atoms: _229  and  _231
REMARK  100  A    between atoms: _231  and  _232
REMARK  101  A    between atoms: _231  and  _234
REMARK  102  A    between atoms: _234  and  _235
REMARK  103  A    between atoms: _238  and  _240
REMARK  104  A    between atoms: _240  and  _241
REMARK  105  A    between atoms: _240  and  _243
REMARK  106  A    between atoms: _243  and  _244
REMARK  107  A    between atoms: _247  and  _249
REMARK  108  A    between atoms: _249  and  _250
REMARK  109  A    between atoms: _249  and  _252
REMARK  110  A    between atoms: _255  and  _257
REMARK  111  A    between atoms: _257  and  _258
REMARK  112  A    between atoms: _257  and  _260
REMARK  113  A    between atoms: _260  and  _261
REMARK  114  A    between atoms: _264  and  _266
REMARK  115  A    between atoms: _266  and  _267
REMARK  116  A    between atoms: _266  and  _269
REMARK  117  A    between atoms: _269  and  _270
REMARK  118  A    between atoms: _273  and  _275
REMARK  119  A    between atoms: _275  and  _276
REMARK  120  A    between atoms: _275  and  _278
REMARK  121  A    between atoms: _278  and  _279
REMARK  122  A    between atoms: _279  and  _280
REMARK  123  A    between atoms: _283  and  _285
REMARK  124  A    between atoms: _285  and  _286
REMARK  125  A    between atoms: _285  and  _288
REMARK  126  A    between atoms: _288  and  _289
REMARK  127  A    between atoms: _295  and  _297
REMARK  128  A    between atoms: _297  and  _298
REMARK  129  A    between atoms: _297  and  _300
REMARK  130  A    between atoms: _302  and  _304
REMARK  131  A    between atoms: _304  and  _305
REMARK  132  A    between atoms: _304  and  _307
REMARK  133  A    between atoms: _307  and  _308
REMARK  134  A    between atoms: _308  and  _309
REMARK  135  A    between atoms: _309  and  _310
REMARK  136  A    between atoms: _310  and  _311
REMARK  137  A    between atoms: _315  and  _317
REMARK  138  A    between atoms: _317  and  _318
REMARK  139  A    between atoms: _317  and  _320
REMARK  140  A    between atoms: _320  and  _321
REMARK  141  A    between atoms: _327  and  _329
REMARK  142  A    between atoms: _329  and  _330
REMARK  143  A    between atoms: _332  and  _334
REMARK  144  A    between atoms: _334  and  _335
REMARK  145  A    between atoms: _334  and  _337
REMARK  146  A    between atoms: _337  and  _338
REMARK  147  A    between atoms: _343  and  _345
REMARK  148  A    between atoms: _345  and  _346
REMARK  149  A    between atoms: _348  and  _350
REMARK  150  A    between atoms: _350  and  _351
REMARK  151  A    between atoms: _350  and  _353
REMARK  152  A    between atoms: _353  and  _354
REMARK  153  A    between atoms: _354  and  _355
REMARK  154  A    between atoms: _357  and  _359
REMARK  155  A    between atoms: _359  and  _360
REMARK  156  A    between atoms: _359  and  _362
REMARK  157  A    between atoms: _362  and  _363
REMARK  158  A    between atoms: _369  and  _371
REMARK  159  A    between atoms: _371  and  _372
REMARK  160  A    between atoms: _371  and  _374
REMARK  161  A    between atoms: _374  and  _375
REMARK  162  A    between atoms: _378  and  _380
REMARK  163  A    between atoms: _380  and  _381
REMARK  164  A    between atoms: _380  and  _383
REMARK  165  A    between atoms: _383  and  _384
REMARK  166  A    between atoms: _384  and  _385
REMARK  167  A    between atoms: _385  and  _386
REMARK  168  A    between atoms: _386  and  _387
REMARK  169  A    between atoms: _391  and  _393
REMARK  170  A    between atoms: _393  and  _394
REMARK  171  A    between atoms: _393  and  _396
REMARK  172  A    between atoms: _398  and  _400
REMARK  173  A    between atoms: _400  and  _401
REMARK  174  A    between atoms: _400  and  _403
REMARK  175  A    between atoms: _403  and  _404
REMARK  176  A    between atoms: _407  and  _409
REMARK  177  A    between atoms: _409  and  _410
REMARK  178  A    between atoms: _409  and  _412
REMARK  179  A    between atoms: _412  and  _413
REMARK  180  A    between atoms: _418  and  _420
REMARK  181  A    between atoms: _420  and  _421
REMARK  182  A    between atoms: _420  and  _423
REMARK  183  A    between atoms: _423  and  _424
REMARK  184  A    between atoms: _424  and  _425
REMARK  185  A    between atoms: _425  and  _426
REMARK  186  A    between atoms: _435  and  _437
REMARK  187  A    between atoms: _437  and  _438
REMARK  188  A    between atoms: _437  and  _440
REMARK  189  A    between atoms: _440  and  _441
REMARK  190  A    between atoms: _444  and  _446
REMARK  191  A    between atoms: _446  and  _447
REMARK  192  A    between atoms: _446  and  _449
REMARK  193  A    between atoms: _449  and  _450
REMARK  194  A    between atoms: _455  and  _457
REMARK  195  A    between atoms: _457  and  _458
REMARK  196  A    between atoms: _457  and  _460
REMARK  197  A    between atoms: _460  and  _461
REMARK  198  A    between atoms: _464  and  _466
REMARK  199  A    between atoms: _466  and  _467
REMARK  200  A    between atoms: _466  and  _469
REMARK  201  A    between atoms: _469  and  _470
REMARK  202  A    between atoms: _473  and  _475
REMARK  203  A    between atoms: _475  and  _476
REMARK  204  A    between atoms: _475  and  _478
REMARK  205  A    between atoms: _478  and  _479
REMARK  206  A    between atoms: _481  and  _483
REMARK  207  A    between atoms: _483  and  _484
REMARK  208  A    between atoms: _483  and  _486
REMARK  209  A    between atoms: _486  and  _487
REMARK  210  A    between atoms: _487  and  _488
REMARK  211  A    between atoms: _488  and  _489
REMARK  212  A    between atoms: _489  and  _490
REMARK  213  A    between atoms: _494  and  _496
REMARK  214  A    between atoms: _496  and  _497
REMARK  215  A    between atoms: _496  and  _499
REMARK  216  A    between atoms: _499  and  _500
REMARK  217  A    between atoms: _503  and  _505
REMARK  218  A    between atoms: _505  and  _506
REMARK  219  A    between atoms: _505  and  _508
REMARK  220  A    between atoms: _510  and  _512
REMARK  221  A    between atoms: _512  and  _513
REMARK  222  A    between atoms: _512  and  _515
REMARK  223  A    between atoms: _515  and  _516
REMARK  224  A    between atoms: _519  and  _521
REMARK  225  A    between atoms: _521  and  _522
REMARK  226  A    between atoms: _521  and  _524
REMARK  227  A    between atoms: _524  and  _525
REMARK  228  A    between atoms: _531  and  _533
REMARK  229  A    between atoms: _533  and  _534
REMARK  230  A    between atoms: _536  and  _538
REMARK  231  A    between atoms: _538  and  _539
REMARK  232  A    between atoms: _538  and  _541
REMARK  233  A    between atoms: _541  and  _542
REMARK                            x       y       z     vdW  Elec       q    Type
REMARK                         _______ _______ _______ _____ _____    ______ ____
ROOT
ATOM      1  O   HOH     1      32.177  39.812  17.429  0.00  0.00    +0.000 OA
ENDROOT
TORSDOF 0
REMARK  Name = ../refined-set-2016/2qu6/2qu6_pocket.pdb
REMARK  233 active torsions:
REMARK  status: ('A' for Active; 'I' for Inactive)
REMARK    1  A    between atoms: _1  and  _3
REMARK    2  A    between atoms: _3  and  _4
REMARK    3  A    between atoms: _3  and  _6
REMARK    4  A    between atoms: _6  and  _7
REMARK    5  A    between atoms: _7  and  _8
REMARK    6  A    between atoms: _8  and  _9
REMARK    7  A    between atoms: _9  and  _10
REMARK    8  A    between atoms: _15  and  _16
REMARK    9  A    between atoms: _21  and  _23
REMARK   10  A    between atoms: _23  and  _24
REMARK   11  A    between atoms: _23  and  _26
REMARK   12  A    between atoms: _26  and  _27
REMARK   13  A    between atoms: _30  and  _32
REMARK   14  A    between atoms: _32  and  _33
REMARK   15  A    between atoms: _32  and  _35
REMARK   16  A    between atoms: _35  and  _36
REMARK   17  A    between atoms: _36  and  _37
REMARK   18  A    between atoms: _42  and  _44
REMARK   19  A    between atoms: _44  and  _45
REMARK   20  A    between atoms: _44  and  _47
REMARK   21  A    between atoms: _50  and  _52
REMARK   22  A    between atoms: _52  and  _53
REMARK   23  A    between atoms: _52  and  _55
REMARK   24  A    between atoms: _55  and  _56
REMARK   25  A    between atoms: _59  and  _61
REMARK   26  A    between atoms: _61  and  _62
REMARK   27  A    between atoms: _61  and  _64
REMARK   28  A    between atoms: _64  and  _65
REMARK   29  A    between atoms: _65  and  _66
REMARK   30  A    between atoms: _69  and  _71
REMARK   31  A    between atoms: _71  and  _72
REMARK   32  A    between atoms: _71  and  _74
REMARK   33  A    between atoms: _74  and  _75
REMARK   34  A    between atoms: _78  and  _80
REMARK   35  A    between atoms: _80  and  _81
REMARK   36  A    between atoms: _80  and  _83
REMARK   37  A    between atoms: _86  and  _88
REMARK   38  A    between atoms: _88  and  _89
REMARK   39  A    between atoms: _92  and  _94
REMARK   40  A    between atoms: _94  and  _95
REMARK   41  A    between atoms: _94  and  _97
REMARK   42  A    between atoms: _100  and  _102
REMARK   43  A    between atoms: _102  and  _103
REMARK   44  A    between atoms: _102  and  _105
REMARK   45  A    between atoms: _105  and  _106
REMARK   46  A    between atoms: _106  and  _107
REMARK   47  A    between atoms: _107  and  _108
REMARK   48  A    between atoms: _108  and  _109
REMARK   49  A    between atoms: _113  and  _115
REMARK   50  A    between atoms: _115  and  _116
REMARK   51  A    between atoms: _115  and  _118
REMARK   52  A    between atoms: _118  and  _119
REMARK   53  A    between atoms: _119  and  _120
REMARK   54  A    between atoms: _122  and  _124
REMARK   55  A    between atoms: _124  and  _125
REMARK   56  A    between atoms: _128  and  _130
REMARK   57  A    between atoms: _130  and  _131
REMARK   58  A    between atoms: _130  and  _133
REMARK   59  A    between atoms: _133  and  _134
REMARK   60  A    between atoms: _137  and  _139
REMARK   61  A    between atoms: _139  and  _140
REMARK   62  A    between atoms: _139  and  _142
REMARK   63  A    between atoms: _142  and  _143
REMARK   64  A    between atoms: _145  and  _147
REMARK   65  A    between atoms: _147  and  _148
REMARK   66  A    between atoms: _147  and  _150
REMARK   67  A    between atoms: _150  and  _151
REMARK   68  A    between atoms: _151  and  _152
REMARK   69  A    between atoms: _155  and  _157
REMARK   70  A    between atoms: _157  and  _158
REMARK   71  A    between atoms: _157  and  _160
REMARK   72  A    between atoms: _160  and  _161
REMARK   73  A    between atoms: _164  and  _166
REMARK   74  A    between atoms: _166  and  _167
REMARK   75  A    between atoms: _166  and  _169
REMARK   76  A    between atoms: _169  and  _170
REMARK   77  A    between atoms: _173  and  _175
REMARK   78  A    between atoms: _175  and  _176
REMARK   79  A    between atoms: _175  and  _178
REMARK   80  A    between atoms: _178  and  _179
REMARK   81  A    between atoms: _182  and  _184
REMARK   82  A    between atoms: _184  and  _185
REMARK   83  A    between atoms: _184  and  _187
REMARK   84  A    between atoms: _187  and  _188
REMARK   85  A    between atoms: _191  and  _193
REMARK   86  A    between atoms: _193  and  _194
REMARK   87  A    between atoms: _193  and  _196
REMARK   88  A    between atoms: _196  and  _197
REMARK   89  A    between atoms: _202  and  _204
REMARK   90  A    between atoms: _204  and  _205
REMARK   91  A    between atoms: _204  and  _207
REMARK   92  A    between atoms: _210  and  _212
REMARK   93  A    between atoms: _212  and  _213
REMARK   94  A    between atoms: _212  and  _215
REMARK   95  A    between atoms: _218  and  _220
REMARK   96  A    between atoms: _220  and  _221
REMARK   97  A    between atoms: _220  and  _223
REMARK   98  A    between atoms: _223  and  _224
REMARK   99  A    between atoms: _229  and  _231
REMARK  100  A    between atoms: _231  and  _232
REMARK  101  A    between atoms: _231  and  _234
REMARK  102  A    between atoms: _234  and  _235
REMARK  103  A    between atoms: _238  and  _240
REMARK  104  A    between atoms: _240  and  _241
REMARK  105  A    between atoms: _240  and  _243
REMARK  106  A    between atoms: _243  and  _244
REMARK  107  A    between atoms: _247  and  _249
REMARK  108  A    between atoms: _249  and  _250
REMARK  109  A    between atoms: _249  and  _252
REMARK  110  A    between atoms: _255  and  _257
REMARK  111  A    between atoms: _257  and  _258
REMARK  112  A    between atoms: _257  and  _260
REMARK  113  A    between atoms: _260  and  _261
REMARK  114  A    between atoms: _264  and  _266
REMARK  115  A    between atoms: _266  and  _267
REMARK  116  A    between atoms: _266  and  _269
REMARK  117  A    between atoms: _269  and  _270
REMARK  118  A    between atoms: _273  and  _275
REMARK  119  A    between atoms: _275  and  _276
REMARK  120  A    between atoms: _275  and  _278
REMARK  121  A    between atoms: _278  and  _279
REMARK  122  A    between atoms: _279  and  _280
REMARK  123  A    between atoms: _283  and  _285
REMARK  124  A    between atoms: _285  and  _286
REMARK  125  A    between atoms: _285  and  _288
REMARK  126  A    between atoms: _288  and  _289
REMARK  127  A    between atoms: _295  and  _297
REMARK  128  A    between atoms: _297  and  _298
REMARK  129  A    between atoms: _297  and  _300
REMARK  130  A    between atoms: _302  and  _304
REMARK  131  A    between atoms: _304  and  _305
REMARK  132  A    between atoms: _304  and  _307
REMARK  133  A    between atoms: _307  and  _308
REMARK  134  A    between atoms: _308  and  _309
REMARK  135  A    between atoms: _309  and  _310
REMARK  136  A    between atoms: _310  and  _311
REMARK  137  A    between atoms: _315  and  _317
REMARK  138  A    between atoms: _317  and  _318
REMARK  139  A    between atoms: _317  and  _320
REMARK  140  A    between atoms: _320  and  _321
REMARK  141  A    between atoms: _327  and  _329
REMARK  142  A    between atoms: _329  and  _330
REMARK  143  A    between atoms: _332  and  _334
REMARK  144  A    between atoms: _334  and  _335
REMARK  145  A    between atoms: _334  and  _337
REMARK  146  A    between atoms: _337  and  _338
REMARK  147  A    between atoms: _343  and  _345
REMARK  148  A    between atoms: _345  and  _346
REMARK  149  A    between atoms: _348  and  _350
REMARK  150  A    between atoms: _350  and  _351
REMARK  151  A    between atoms: _350  and  _353
REMARK  152  A    between atoms: _353  and  _354
REMARK  153  A    between atoms: _354  and  _355
REMARK  154  A    between atoms: _357  and  _359
REMARK  155  A    between atoms: _359  and  _360
REMARK  156  A    between atoms: _359  and  _362
REMARK  157  A    between atoms: _362  and  _363
REMARK  158  A    between atoms: _369  and  _371
REMARK  159  A    between atoms: _371  and  _372
REMARK  160  A    between atoms: _371  and  _374
REMARK  161  A    between atoms: _374  and  _375
REMARK  162  A    between atoms: _378  and  _380
REMARK  163  A    between atoms: _380  and  _381
REMARK  164  A    between atoms: _380  and  _383
REMARK  165  A    between atoms: _383  and  _384
REMARK  166  A    between atoms: _384  and  _385
REMARK  167  A    between atoms: _385  and  _386
REMARK  168  A    between atoms: _386  and  _387
REMARK  169  A    between atoms: _391  and  _393
REMARK  170  A    between atoms: _393  and  _394
REMARK  171  A    between atoms: _393  and  _396
REMARK  172  A    between atoms: _398  and  _400
REMARK  173  A    between atoms: _400  and  _401
REMARK  174  A    between atoms: _400  and  _403
REMARK  175  A    between atoms: _403  and  _404
REMARK  176  A    between atoms: _407  and  _409
REMARK  177  A    between atoms: _409  and  _410
REMARK  178  A    between atoms: _409  and  _412
REMARK  179  A    between atoms: _412  and  _413
REMARK  180  A    between atoms: _418  and  _420
REMARK  181  A    between atoms: _420  and  _421
REMARK  182  A    between atoms: _420  and  _423
REMARK  183  A    between atoms: _423  and  _424
REMARK  184  A    between atoms: _424  and  _425
REMARK  185  A    between atoms: _425  and  _426
REMARK  186  A    between atoms: _435  and  _437
REMARK  187  A    between atoms: _437  and  _438
REMARK  188  A    between atoms: _437  and  _440
REMARK  189  A    between atoms: _440  and  _441
REMARK  190  A    between atoms: _444  and  _446
REMARK  191  A    between atoms: _446  and  _447
REMARK  192  A    between atoms: _446  and  _449
REMARK  193  A    between atoms: _449  and  _450
REMARK  194  A    between atoms: _455  and  _457
REMARK  195  A    between atoms: _457  and  _458
REMARK  196  A    between atoms: _457  and  _460
REMARK  197  A    between atoms: _460  and  _461
REMARK  198  A    between atoms: _464  and  _466
REMARK  199  A    between atoms: _466  and  _467
REMARK  200  A    between atoms: _466  and  _469
REMARK  201  A    between atoms: _469  and  _470
REMARK  202  A    between atoms: _473  and  _475
REMARK  203  A    between atoms: _475  and  _476
REMARK  204  A    between atoms: _475  and  _478
REMARK  205  A    between atoms: _478  and  _479
REMARK  206  A    between atoms: _481  and  _483
REMARK  207  A    between atoms: _483  and  _484
REMARK  208  A    between atoms: _483  and  _486
REMARK  209  A    between atoms: _486  and  _487
REMARK  210  A    between atoms: _487  and  _488
REMARK  211  A    between atoms: _488  and  _489
REMARK  212  A    between atoms: _489  and  _490
REMARK  213  A    between atoms: _494  and  _496
REMARK  214  A    between atoms: _496  and  _497
REMARK  215  A    between atoms: _496  and  _499
REMARK  216  A    between atoms: _499  and  _500
REMARK  217  A    between atoms: _503  and  _505
REMARK  218  A    between atoms: _505  and  _506
REMARK  219  A    between atoms: _505  and  _508
REMARK  220  A    between atoms: _510  and  _512
REMARK  221  A    between atoms: _512  and  _513
REMARK  222  A    between atoms: _512  and  _515
REMARK  223  A    between atoms: _515  and  _516
REMARK  224  A    between atoms: _519  and  _521
REMARK  225  A    between atoms: _521  and  _522
REMARK  226  A    between atoms: _521  and  _524
REMARK  227  A    between atoms: _524  and  _525
REMARK  228  A    between atoms: _531  and  _533
REMARK  229  A    between atoms: _533  and  _534
REMARK  230  A    between atoms: _536  and  _538
REMARK  231  A    between atoms: _538  and  _539
REMARK  232  A    between atoms: _538  and  _541
REMARK  233  A    between atoms: _541  and  _542
REMARK                            x       y       z     vdW  Elec       q    Type
REMARK                         _______ _______ _______ _____ _____    ______ ____
ROOT
ATOM      1  O   HOH     1      39.391  36.515   2.922  0.00  0.00    +0.000 OA
ENDROOT
TORSDOF 0
REMARK  Name = ../refined-set-2016/2qu6/2qu6_pocket.pdb
REMARK  233 active torsions:
REMARK  status: ('A' for Active; 'I' for Inactive)
REMARK    1  A    between atoms: _1  and  _3
REMARK    2  A    between atoms: _3  and  _4
REMARK    3  A    between atoms: _3  and  _6
REMARK    4  A    between atoms: _6  and  _7
REMARK    5  A    between atoms: _7  and  _8
REMARK    6  A    between atoms: _8  and  _9
REMARK    7  A    between atoms: _9  and  _10
REMARK    8  A    between atoms: _15  and  _16
REMARK    9  A    between atoms: _21  and  _23
REMARK   10  A    between atoms: _23  and  _24
REMARK   11  A    between atoms: _23  and  _26
REMARK   12  A    between atoms: _26  and  _27
REMARK   13  A    between atoms: _30  and  _32
REMARK   14  A    between atoms: _32  and  _33
REMARK   15  A    between atoms: _32  and  _35
REMARK   16  A    between atoms: _35  and  _36
REMARK   17  A    between atoms: _36  and  _37
REMARK   18  A    between atoms: _42  and  _44
REMARK   19  A    between atoms: _44  and  _45
REMARK   20  A    between atoms: _44  and  _47
REMARK   21  A    between atoms: _50  and  _52
REMARK   22  A    between atoms: _52  and  _53
REMARK   23  A    between atoms: _52  and  _55
REMARK   24  A    between atoms: _55  and  _56
REMARK   25  A    between atoms: _59  and  _61
REMARK   26  A    between atoms: _61  and  _62
REMARK   27  A    between atoms: _61  and  _64
REMARK   28  A    between atoms: _64  and  _65
REMARK   29  A    between atoms: _65  and  _66
REMARK   30  A    between atoms: _69  and  _71
REMARK   31  A    between atoms: _71  and  _72
REMARK   32  A    between atoms: _71  and  _74
REMARK   33  A    between atoms: _74  and  _75
REMARK   34  A    between atoms: _78  and  _80
REMARK   35  A    between atoms: _80  and  _81
REMARK   36  A    between atoms: _80  and  _83
REMARK   37  A    between atoms: _86  and  _88
REMARK   38  A    between atoms: _88  and  _89
REMARK   39  A    between atoms: _92  and  _94
REMARK   40  A    between atoms: _94  and  _95
REMARK   41  A    between atoms: _94  and  _97
REMARK   42  A    between atoms: _100  and  _102
REMARK   43  A    between atoms: _102  and  _103
REMARK   44  A    between atoms: _102  and  _105
REMARK   45  A    between atoms: _105  and  _106
REMARK   46  A    between atoms: _106  and  _107
REMARK   47  A    between atoms: _107  and  _108
REMARK   48  A    between atoms: _108  and  _109
REMARK   49  A    between atoms: _113  and  _115
REMARK   50  A    between atoms: _115  and  _116
REMARK   51  A    between atoms: _115  and  _118
REMARK   52  A    between atoms: _118  and  _119
REMARK   53  A    between atoms: _119  and  _120
REMARK   54  A    between atoms: _122  and  _124
REMARK   55  A    between atoms: _124  and  _125
REMARK   56  A    between atoms: _128  and  _130
REMARK   57  A    between atoms: _130  and  _131
REMARK   58  A    between atoms: _130  and  _133
REMARK   59  A    between atoms: _133  and  _134
REMARK   60  A    between atoms: _137  and  _139
REMARK   61  A    between atoms: _139  and  _140
REMARK   62  A    between atoms: _139  and  _142
REMARK   63  A    between atoms: _142  and  _143
REMARK   64  A    between atoms: _145  and  _147
REMARK   65  A    between atoms: _147  and  _148
REMARK   66  A    between atoms: _147  and  _150
REMARK   67  A    between atoms: _150  and  _151
REMARK   68  A    between atoms: _151  and  _152
REMARK   69  A    between atoms: _155  and  _157
REMARK   70  A    between atoms: _157  and  _158
REMARK   71  A    between atoms: _157  and  _160
REMARK   72  A    between atoms: _160  and  _161
REMARK   73  A    between atoms: _164  and  _166
REMARK   74  A    between atoms: _166  and  _167
REMARK   75  A    between atoms: _166  and  _169
REMARK   76  A    between atoms: _169  and  _170
REMARK   77  A    between atoms: _173  and  _175
REMARK   78  A    between atoms: _175  and  _176
REMARK   79  A    between atoms: _175  and  _178
REMARK   80  A    between atoms: _178  and  _179
REMARK   81  A    between atoms: _182  and  _184
REMARK   82  A    between atoms: _184  and  _185
REMARK   83  A    between atoms: _184  and  _187
REMARK   84  A    between atoms: _187  and  _188
REMARK   85  A    between atoms: _191  and  _193
REMARK   86  A    between atoms: _193  and  _194
REMARK   87  A    between atoms: _193  and  _196
REMARK   88  A    between atoms: _196  and  _197
REMARK   89  A    between atoms: _202  and  _204
REMARK   90  A    between atoms: _204  and  _205
REMARK   91  A    between atoms: _204  and  _207
REMARK   92  A    between atoms: _210  and  _212
REMARK   93  A    between atoms: _212  and  _213
REMARK   94  A    between atoms: _212  and  _215
REMARK   95  A    between atoms: _218  and  _220
REMARK   96  A    between atoms: _220  and  _221
REMARK   97  A    between atoms: _220  and  _223
REMARK   98  A    between atoms: _223  and  _224
REMARK   99  A    between atoms: _229  and  _231
REMARK  100  A    between atoms: _231  and  _232
REMARK  101  A    between atoms: _231  and  _234
REMARK  102  A    between atoms: _234  and  _235
REMARK  103  A    between atoms: _238  and  _240
REMARK  104  A    between atoms: _240  and  _241
REMARK  105  A    between atoms: _240  and  _243
REMARK  106  A    between atoms: _243  and  _244
REMARK  107  A    between atoms: _247  and  _249
REMARK  108  A    between atoms: _249  and  _250
REMARK  109  A    between atoms: _249  and  _252
REMARK  110  A    between atoms: _255  and  _257
REMARK  111  A    between atoms: _257  and  _258
REMARK  112  A    between atoms: _257  and  _260
REMARK  113  A    between atoms: _260  and  _261
REMARK  114  A    between atoms: _264  and  _266
REMARK  115  A    between atoms: _266  and  _267
REMARK  116  A    between atoms: _266  and  _269
REMARK  117  A    between atoms: _269  and  _270
REMARK  118  A    between atoms: _273  and  _275
REMARK  119  A    between atoms: _275  and  _276
REMARK  120  A    between atoms: _275  and  _278
REMARK  121  A    between atoms: _278  and  _279
REMARK  122  A    between atoms: _279  and  _280
REMARK  123  A    between atoms: _283  and  _285
REMARK  124  A    between atoms: _285  and  _286
REMARK  125  A    between atoms: _285  and  _288
REMARK  126  A    between atoms: _288  and  _289
REMARK  127  A    between atoms: _295  and  _297
REMARK  128  A    between atoms: _297  and  _298
REMARK  129  A    between atoms: _297  and  _300
REMARK  130  A    between atoms: _302  and  _304
REMARK  131  A    between atoms: _304  and  _305
REMARK  132  A    between atoms: _304  and  _307
REMARK  133  A    between atoms: _307  and  _308
REMARK  134  A    between atoms: _308  and  _309
REMARK  135  A    between atoms: _309  and  _310
REMARK  136  A    between atoms: _310  and  _311
REMARK  137  A    between atoms: _315  and  _317
REMARK  138  A    between atoms: _317  and  _318
REMARK  139  A    between atoms: _317  and  _320
REMARK  140  A    between atoms: _320  and  _321
REMARK  141  A    between atoms: _327  and  _329
REMARK  142  A    between atoms: _329  and  _330
REMARK  143  A    between atoms: _332  and  _334
REMARK  144  A    between atoms: _334  and  _335
REMARK  145  A    between atoms: _334  and  _337
REMARK  146  A    between atoms: _337  and  _338
REMARK  147  A    between atoms: _343  and  _345
REMARK  148  A    between atoms: _345  and  _346
REMARK  149  A    between atoms: _348  and  _350
REMARK  150  A    between atoms: _350  and  _351
REMARK  151  A    between atoms: _350  and  _353
REMARK  152  A    between atoms: _353  and  _354
REMARK  153  A    between atoms: _354  and  _355
REMARK  154  A    between atoms: _357  and  _359
REMARK  155  A    between atoms: _359  and  _360
REMARK  156  A    between atoms: _359  and  _362
REMARK  157  A    between atoms: _362  and  _363
REMARK  158  A    between atoms: _369  and  _371
REMARK  159  A    between atoms: _371  and  _372
REMARK  160  A    between atoms: _371  and  _374
REMARK  161  A    between atoms: _374  and  _375
REMARK  162  A    between atoms: _378  and  _380
REMARK  163  A    between atoms: _380  and  _381
REMARK  164  A    between atoms: _380  and  _383
REMARK  165  A    between atoms: _383  and  _384
REMARK  166  A    between atoms: _384  and  _385
REMARK  167  A    between atoms: _385  and  _386
REMARK  168  A    between atoms: _386  and  _387
REMARK  169  A    between atoms: _391  and  _393
REMARK  170  A    between atoms: _393  and  _394
REMARK  171  A    between atoms: _393  and  _396
REMARK  172  A    between atoms: _398  and  _400
REMARK  173  A    between atoms: _400  and  _401
REMARK  174  A    between atoms: _400  and  _403
REMARK  175  A    between atoms: _403  and  _404
REMARK  176  A    between atoms: _407  and  _409
REMARK  177  A    between atoms: _409  and  _410
REMARK  178  A    between atoms: _409  and  _412
REMARK  179  A    between atoms: _412  and  _413
REMARK  180  A    between atoms: _418  and  _420
REMARK  181  A    between atoms: _420  and  _421
REMARK  182  A    between atoms: _420  and  _423
REMARK  183  A    between atoms: _423  and  _424
REMARK  184  A    between atoms: _424  and  _425
REMARK  185  A    between atoms: _425  and  _426
REMARK  186  A    between atoms: _435  and  _437
REMARK  187  A    between atoms: _437  and  _438
REMARK  188  A    between atoms: _437  and  _440
REMARK  189  A    between atoms: _440  and  _441
REMARK  190  A    between atoms: _444  and  _446
REMARK  191  A    between atoms: _446  and  _447
REMARK  192  A    between atoms: _446  and  _449
REMARK  193  A    between atoms: _449  and  _450
REMARK  194  A    between atoms: _455  and  _457
REMARK  195  A    between atoms: _457  and  _458
REMARK  196  A    between atoms: _457  and  _460
REMARK  197  A    between atoms: _460  and  _461
REMARK  198  A    between atoms: _464  and  _466
REMARK  199  A    between atoms: _466  and  _467
REMARK  200  A    between atoms: _466  and  _469
REMARK  201  A    between atoms: _469  and  _470
REMARK  202  A    between atoms: _473  and  _475
REMARK  203  A    between atoms: _475  and  _476
REMARK  204  A    between atoms: _475  and  _478
REMARK  205  A    between atoms: _478  and  _479
REMARK  206  A    between atoms: _481  and  _483
REMARK  207  A    between atoms: _483  and  _484
REMARK  208  A    between atoms: _483  and  _486
REMARK  209  A    between atoms: _486  and  _487
REMARK  210  A    between atoms: _487  and  _488
REMARK  211  A    between atoms: _488  and  _489
REMARK  212  A    between atoms: _489  and  _490
REMARK  213  A    between atoms: _494  and  _496
REMARK  214  A    between atoms: _496  and  _497
REMARK  215  A    between atoms: _496  and  _499
REMARK  216  A    between atoms: _499  and  _500
REMARK  217  A    between atoms: _503  and  _505
REMARK  218  A    between atoms: _505  and  _506
REMARK  219  A    between atoms: _505  and  _508
REMARK  220  A    between atoms: _510  and  _512
REMARK  221  A    between atoms: _512  and  _513
REMARK  222  A    between atoms: _512  and  _515
REMARK  223  A    between atoms: _515  and  _516
REMARK  224  A    between atoms: _519  and  _521
REMARK  225  A    between atoms: _521  and  _522
REMARK  226  A    between atoms: _521  and  _524
REMARK  227  A    between atoms: _524  and  _525
REMARK  228  A    between atoms: _531  and  _533
REMARK  229  A    between atoms: _533  and  _534
REMARK  230  A    between atoms: _536  and  _538
REMARK  231  A    between atoms: _538  and  _539
REMARK  232  A    between atoms: _538  and  _541
REMARK  233  A    between atoms: _541  and  _542
REMARK                            x       y       z     vdW  Elec       q    Type
REMARK                         _______ _______ _______ _____ _____    ______ ____
ROOT
ATOM      1  O   HOH     1      43.901  24.179   6.188  0.00  0.00    +0.000 OA
ENDROOT
TORSDOF 0
REMARK  Name = ../refined-set-2016/2qu6/2qu6_pocket.pdb
REMARK  233 active torsions:
REMARK  status: ('A' for Active; 'I' for Inactive)
REMARK    1  A    between atoms: _1  and  _3
REMARK    2  A    between atoms: _3  and  _4
REMARK    3  A    between atoms: _3  and  _6
REMARK    4  A    between atoms: _6  and  _7
REMARK    5  A    between atoms: _7  and  _8
REMARK    6  A    between atoms: _8  and  _9
REMARK    7  A    between atoms: _9  and  _10
REMARK    8  A    between atoms: _15  and  _16
REMARK    9  A    between atoms: _21  and  _23
REMARK   10  A    between atoms: _23  and  _24
REMARK   11  A    between atoms: _23  and  _26
REMARK   12  A    between atoms: _26  and  _27
REMARK   13  A    between atoms: _30  and  _32
REMARK   14  A    between atoms: _32  and  _33
REMARK   15  A    between atoms: _32  and  _35
REMARK   16  A    between atoms: _35  and  _36
REMARK   17  A    between atoms: _36  and  _37
REMARK   18  A    between atoms: _42  and  _44
REMARK   19  A    between atoms: _44  and  _45
REMARK   20  A    between atoms: _44  and  _47
REMARK   21  A    between atoms: _50  and  _52
REMARK   22  A    between atoms: _52  and  _53
REMARK   23  A    between atoms: _52  and  _55
REMARK   24  A    between atoms: _55  and  _56
REMARK   25  A    between atoms: _59  and  _61
REMARK   26  A    between atoms: _61  and  _62
REMARK   27  A    between atoms: _61  and  _64
REMARK   28  A    between atoms: _64  and  _65
REMARK   29  A    between atoms: _65  and  _66
REMARK   30  A    between atoms: _69  and  _71
REMARK   31  A    between atoms: _71  and  _72
REMARK   32  A    between atoms: _71  and  _74
REMARK   33  A    between atoms: _74  and  _75
REMARK   34  A    between atoms: _78  and  _80
REMARK   35  A    between atoms: _80  and  _81
REMARK   36  A    between atoms: _80  and  _83
REMARK   37  A    between atoms: _86  and  _88
REMARK   38  A    between atoms: _88  and  _89
REMARK   39  A    between atoms: _92  and  _94
REMARK   40  A    between atoms: _94  and  _95
REMARK   41  A    between atoms: _94  and  _97
REMARK   42  A    between atoms: _100  and  _102
REMARK   43  A    between atoms: _102  and  _103
REMARK   44  A    between atoms: _102  and  _105
REMARK   45  A    between atoms: _105  and  _106
REMARK   46  A    between atoms: _106  and  _107
REMARK   47  A    between atoms: _107  and  _108
REMARK   48  A    between atoms: _108  and  _109
REMARK   49  A    between atoms: _113  and  _115
REMARK   50  A    between atoms: _115  and  _116
REMARK   51  A    between atoms: _115  and  _118
REMARK   52  A    between atoms: _118  and  _119
REMARK   53  A    between atoms: _119  and  _120
REMARK   54  A    between atoms: _122  and  _124
REMARK   55  A    between atoms: _124  and  _125
REMARK   56  A    between atoms: _128  and  _130
REMARK   57  A    between atoms: _130  and  _131
REMARK   58  A    between atoms: _130  and  _133
REMARK   59  A    between atoms: _133  and  _134
REMARK   60  A    between atoms: _137  and  _139
REMARK   61  A    between atoms: _139  and  _140
REMARK   62  A    between atoms: _139  and  _142
REMARK   63  A    between atoms: _142  and  _143
REMARK   64  A    between atoms: _145  and  _147
REMARK   65  A    between atoms: _147  and  _148
REMARK   66  A    between atoms: _147  and  _150
REMARK   67  A    between atoms: _150  and  _151
REMARK   68  A    between atoms: _151  and  _152
REMARK   69  A    between atoms: _155  and  _157
REMARK   70  A    between atoms: _157  and  _158
REMARK   71  A    between atoms: _157  and  _160
REMARK   72  A    between atoms: _160  and  _161
REMARK   73  A    between atoms: _164  and  _166
REMARK   74  A    between atoms: _166  and  _167
REMARK   75  A    between atoms: _166  and  _169
REMARK   76  A    between atoms: _169  and  _170
REMARK   77  A    between atoms: _173  and  _175
REMARK   78  A    between atoms: _175  and  _176
REMARK   79  A    between atoms: _175  and  _178
REMARK   80  A    between atoms: _178  and  _179
REMARK   81  A    between atoms: _182  and  _184
REMARK   82  A    between atoms: _184  and  _185
REMARK   83  A    between atoms: _184  and  _187
REMARK   84  A    between atoms: _187  and  _188
REMARK   85  A    between atoms: _191  and  _193
REMARK   86  A    between atoms: _193  and  _194
REMARK   87  A    between atoms: _193  and  _196
REMARK   88  A    between atoms: _196  and  _197
REMARK   89  A    between atoms: _202  and  _204
REMARK   90  A    between atoms: _204  and  _205
REMARK   91  A    between atoms: _204  and  _207
REMARK   92  A    between atoms: _210  and  _212
REMARK   93  A    between atoms: _212  and  _213
REMARK   94  A    between atoms: _212  and  _215
REMARK   95  A    between atoms: _218  and  _220
REMARK   96  A    between atoms: _220  and  _221
REMARK   97  A    between atoms: _220  and  _223
REMARK   98  A    between atoms: _223  and  _224
REMARK   99  A    between atoms: _229  and  _231
REMARK  100  A    between atoms: _231  and  _232
REMARK  101  A    between atoms: _231  and  _234
REMARK  102  A    between atoms: _234  and  _235
REMARK  103  A    between atoms: _238  and  _240
REMARK  104  A    between atoms: _240  and  _241
REMARK  105  A    between atoms: _240  and  _243
REMARK  106  A    between atoms: _243  and  _244
REMARK  107  A    between atoms: _247  and  _249
REMARK  108  A    between atoms: _249  and  _250
REMARK  109  A    between atoms: _249  and  _252
REMARK  110  A    between atoms: _255  and  _257
REMARK  111  A    between atoms: _257  and  _258
REMARK  112  A    between atoms: _257  and  _260
REMARK  113  A    between atoms: _260  and  _261
REMARK  114  A    between atoms: _264  and  _266
REMARK  115  A    between atoms: _266  and  _267
REMARK  116  A    between atoms: _266  and  _269
REMARK  117  A    between atoms: _269  and  _270
REMARK  118  A    between atoms: _273  and  _275
REMARK  119  A    between atoms: _275  and  _276
REMARK  120  A    between atoms: _275  and  _278
REMARK  121  A    between atoms: _278  and  _279
REMARK  122  A    between atoms: _279  and  _280
REMARK  123  A    between atoms: _283  and  _285
REMARK  124  A    between atoms: _285  and  _286
REMARK  125  A    between atoms: _285  and  _288
REMARK  126  A    between atoms: _288  and  _289
REMARK  127  A    between atoms: _295  and  _297
REMARK  128  A    between atoms: _297  and  _298
REMARK  129  A    between atoms: _297  and  _300
REMARK  130  A    between atoms: _302  and  _304
REMARK  131  A    between atoms: _304  and  _305
REMARK  132  A    between atoms: _304  and  _307
REMARK  133  A    between atoms: _307  and  _308
REMARK  134  A    between atoms: _308  and  _309
REMARK  135  A    between atoms: _309  and  _310
REMARK  136  A    between atoms: _310  and  _311
REMARK  137  A    between atoms: _315  and  _317
REMARK  138  A    between atoms: _317  and  _318
REMARK  139  A    between atoms: _317  and  _320
REMARK  140  A    between atoms: _320  and  _321
REMARK  141  A    between atoms: _327  and  _329
REMARK  142  A    between atoms: _329  and  _330
REMARK  143  A    between atoms: _332  and  _334
REMARK  144  A    between atoms: _334  and  _335
REMARK  145  A    between atoms: _334  and  _337
REMARK  146  A    between atoms: _337  and  _338
REMARK  147  A    between atoms: _343  and  _345
REMARK  148  A    between atoms: _345  and  _346
REMARK  149  A    between atoms: _348  and  _350
REMARK  150  A    between atoms: _350  and  _351
REMARK  151  A    between atoms: _350  and  _353
REMARK  152  A    between atoms: _353  and  _354
REMARK  153  A    between atoms: _354  and  _355
REMARK  154  A    between atoms: _357  and  _359
REMARK  155  A    between atoms: _359  and  _360
REMARK  156  A    between atoms: _359  and  _362
REMARK  157  A    between atoms: _362  and  _363
REMARK  158  A    between atoms: _369  and  _371
REMARK  159  A    between atoms: _371  and  _372
REMARK  160  A    between atoms: _371  and  _374
REMARK  161  A    between atoms: _374  and  _375
REMARK  162  A    between atoms: _378  and  _380
REMARK  163  A    between atoms: _380  and  _381
REMARK  164  A    between atoms: _380  and  _383
REMARK  165  A    between atoms: _383  and  _384
REMARK  166  A    between atoms: _384  and  _385
REMARK  167  A    between atoms: _385  and  _386
REMARK  168  A    between atoms: _386  and  _387
REMARK  169  A    between atoms: _391  and  _393
REMARK  170  A    between atoms: _393  and  _394
REMARK  171  A    between atoms: _393  and  _396
REMARK  172  A    between atoms: _398  and  _400
REMARK  173  A    between atoms: _400  and  _401
REMARK  174  A    between atoms: _400  and  _403
REMARK  175  A    between atoms: _403  and  _404
REMARK  176  A    between atoms: _407  and  _409
REMARK  177  A    between atoms: _409  and  _410
REMARK  178  A    between atoms: _409  and  _412
REMARK  179  A    between atoms: _412  and  _413
REMARK  180  A    between atoms: _418  and  _420
REMARK  181  A    between atoms: _420  and  _421
REMARK  182  A    between atoms: _420  and  _423
REMARK  183  A    between atoms: _423  and  _424
REMARK  184  A    between atoms: _424  and  _425
REMARK  185  A    between atoms: _425  and  _426
REMARK  186  A    between atoms: _435  and  _437
REMARK  187  A    between atoms: _437  and  _438
REMARK  188  A    between atoms: _437  and  _440
REMARK  189  A    between atoms: _440  and  _441
REMARK  190  A    between atoms: _444  and  _446
REMARK  191  A    between atoms: _446  and  _447
REMARK  192  A    between atoms: _446  and  _449
REMARK  193  A    between atoms: _449  and  _450
REMARK  194  A    between atoms: _455  and  _457
REMARK  195  A    between atoms: _457  and  _458
REMARK  196  A    between atoms: _457  and  _460
REMARK  197  A    between atoms: _460  and  _461
REMARK  198  A    between atoms: _464  and  _466
REMARK  199  A    between atoms: _466  and  _467
REMARK  200  A    between atoms: _466  and  _469
REMARK  201  A    between atoms: _469  and  _470
REMARK  202  A    between atoms: _473  and  _475
REMARK  203  A    between atoms: _475  and  _476
REMARK  204  A    between atoms: _475  and  _478
REMARK  205  A    between atoms: _478  and  _479
REMARK  206  A    between atoms: _481  and  _483
REMARK  207  A    between atoms: _483  and  _484
REMARK  208  A    between atoms: _483  and  _486
REMARK  209  A    between atoms: _486  and  _487
REMARK  210  A    between atoms: _487  and  _488
REMARK  211  A    between atoms: _488  and  _489
REMARK  212  A    between atoms: _489  and  _490
REMARK  213  A    between atoms: _494  and  _496
REMARK  214  A    between atoms: _496  and  _497
REMARK  215  A    between atoms: _496  and  _499
REMARK  216  A    between atoms: _499  and  _500
REMARK  217  A    between atoms: _503  and  _505
REMARK  218  A    between atoms: _505  and  _506
REMARK  219  A    between atoms: _505  and  _508
REMARK  220  A    between atoms: _510  and  _512
REMARK  221  A    between atoms: _512  and  _513
REMARK  222  A    between atoms: _512  and  _515
REMARK  223  A    between atoms: _515  and  _516
REMARK  224  A    between atoms: _519  and  _521
REMARK  225  A    between atoms: _521  and  _522
REMARK  226  A    between atoms: _521  and  _524
REMARK  227  A    between atoms: _524  and  _525
REMARK  228  A    between atoms: _531  and  _533
REMARK  229  A    between atoms: _533  and  _534
REMARK  230  A    between atoms: _536  and  _538
REMARK  231  A    between atoms: _538  and  _539
REMARK  232  A    between atoms: _538  and  _541
REMARK  233  A    between atoms: _541  and  _542
REMARK                            x       y       z     vdW  Elec       q    Type
REMARK                         _______ _______ _______ _____ _____    ______ ____
ROOT
ATOM      1  O   HOH     1      45.548  26.990  17.250  0.00  0.00    +0.000 OA
ENDROOT
TORSDOF 0
REMARK  Name = ../refined-set-2016/2qu6/2qu6_pocket.pdb
REMARK  233 active torsions:
REMARK  status: ('A' for Active; 'I' for Inactive)
REMARK    1  A    between atoms: _1  and  _3
REMARK    2  A    between atoms: _3  and  _4
REMARK    3  A    between atoms: _3  and  _6
REMARK    4  A    between atoms: _6  and  _7
REMARK    5  A    between atoms: _7  and  _8
REMARK    6  A    between atoms: _8  and  _9
REMARK    7  A    between atoms: _9  and  _10
REMARK    8  A    between atoms: _15  and  _16
REMARK    9  A    between atoms: _21  and  _23
REMARK   10  A    between atoms: _23  and  _24
REMARK   11  A    between atoms: _23  and  _26
REMARK   12  A    between atoms: _26  and  _27
REMARK   13  A    between atoms: _30  and  _32
REMARK   14  A    between atoms: _32  and  _33
REMARK   15  A    between atoms: _32  and  _35
REMARK   16  A    between atoms: _35  and  _36
REMARK   17  A    between atoms: _36  and  _37
REMARK   18  A    between atoms: _42  and  _44
REMARK   19  A    between atoms: _44  and  _45
REMARK   20  A    between atoms: _44  and  _47
REMARK   21  A    between atoms: _50  and  _52
REMARK   22  A    between atoms: _52  and  _53
REMARK   23  A    between atoms: _52  and  _55
REMARK   24  A    between atoms: _55  and  _56
REMARK   25  A    between atoms: _59  and  _61
REMARK   26  A    between atoms: _61  and  _62
REMARK   27  A    between atoms: _61  and  _64
REMARK   28  A    between atoms: _64  and  _65
REMARK   29  A    between atoms: _65  and  _66
REMARK   30  A    between atoms: _69  and  _71
REMARK   31  A    between atoms: _71  and  _72
REMARK   32  A    between atoms: _71  and  _74
REMARK   33  A    between atoms: _74  and  _75
REMARK   34  A    between atoms: _78  and  _80
REMARK   35  A    between atoms: _80  and  _81
REMARK   36  A    between atoms: _80  and  _83
REMARK   37  A    between atoms: _86  and  _88
REMARK   38  A    between atoms: _88  and  _89
REMARK   39  A    between atoms: _92  and  _94
REMARK   40  A    between atoms: _94  and  _95
REMARK   41  A    between atoms: _94  and  _97
REMARK   42  A    between atoms: _100  and  _102
REMARK   43  A    between atoms: _102  and  _103
REMARK   44  A    between atoms: _102  and  _105
REMARK   45  A    between atoms: _105  and  _106
REMARK   46  A    between atoms: _106  and  _107
REMARK   47  A    between atoms: _107  and  _108
REMARK   48  A    between atoms: _108  and  _109
REMARK   49  A    between atoms: _113  and  _115
REMARK   50  A    between atoms: _115  and  _116
REMARK   51  A    between atoms: _115  and  _118
REMARK   52  A    between atoms: _118  and  _119
REMARK   53  A    between atoms: _119  and  _120
REMARK   54  A    between atoms: _122  and  _124
REMARK   55  A    between atoms: _124  and  _125
REMARK   56  A    between atoms: _128  and  _130
REMARK   57  A    between atoms: _130  and  _131
REMARK   58  A    between atoms: _130  and  _133
REMARK   59  A    between atoms: _133  and  _134
REMARK   60  A    between atoms: _137  and  _139
REMARK   61  A    between atoms: _139  and  _140
REMARK   62  A    between atoms: _139  and  _142
REMARK   63  A    between atoms: _142  and  _143
REMARK   64  A    between atoms: _145  and  _147
REMARK   65  A    between atoms: _147  and  _148
REMARK   66  A    between atoms: _147  and  _150
REMARK   67  A    between atoms: _150  and  _151
REMARK   68  A    between atoms: _151  and  _152
REMARK   69  A    between atoms: _155  and  _157
REMARK   70  A    between atoms: _157  and  _158
REMARK   71  A    between atoms: _157  and  _160
REMARK   72  A    between atoms: _160  and  _161
REMARK   73  A    between atoms: _164  and  _166
REMARK   74  A    between atoms: _166  and  _167
REMARK   75  A    between atoms: _166  and  _169
REMARK   76  A    between atoms: _169  and  _170
REMARK   77  A    between atoms: _173  and  _175
REMARK   78  A    between atoms: _175  and  _176
REMARK   79  A    between atoms: _175  and  _178
REMARK   80  A    between atoms: _178  and  _179
REMARK   81  A    between atoms: _182  and  _184
REMARK   82  A    between atoms: _184  and  _185
REMARK   83  A    between atoms: _184  and  _187
REMARK   84  A    between atoms: _187  and  _188
REMARK   85  A    between atoms: _191  and  _193
REMARK   86  A    between atoms: _193  and  _194
REMARK   87  A    between atoms: _193  and  _196
REMARK   88  A    between atoms: _196  and  _197
REMARK   89  A    between atoms: _202  and  _204
REMARK   90  A    between atoms: _204  and  _205
REMARK   91  A    between atoms: _204  and  _207
REMARK   92  A    between atoms: _210  and  _212
REMARK   93  A    between atoms: _212  and  _213
REMARK   94  A    between atoms: _212  and  _215
REMARK   95  A    between atoms: _218  and  _220
REMARK   96  A    between atoms: _220  and  _221
REMARK   97  A    between atoms: _220  and  _223
REMARK   98  A    between atoms: _223  and  _224
REMARK   99  A    between atoms: _229  and  _231
REMARK  100  A    between atoms: _231  and  _232
REMARK  101  A    between atoms: _231  and  _234
REMARK  102  A    between atoms: _234  and  _235
REMARK  103  A    between atoms: _238  and  _240
REMARK  104  A    between atoms: _240  and  _241
REMARK  105  A    between atoms: _240  and  _243
REMARK  106  A    between atoms: _243  and  _244
REMARK  107  A    between atoms: _247  and  _249
REMARK  108  A    between atoms: _249  and  _250
REMARK  109  A    between atoms: _249  and  _252
REMARK  110  A    between atoms: _255  and  _257
REMARK  111  A    between atoms: _257  and  _258
REMARK  112  A    between atoms: _257  and  _260
REMARK  113  A    between atoms: _260  and  _261
REMARK  114  A    between atoms: _264  and  _266
REMARK  115  A    between atoms: _266  and  _267
REMARK  116  A    between atoms: _266  and  _269
REMARK  117  A    between atoms: _269  and  _270
REMARK  118  A    between atoms: _273  and  _275
REMARK  119  A    between atoms: _275  and  _276
REMARK  120  A    between atoms: _275  and  _278
REMARK  121  A    between atoms: _278  and  _279
REMARK  122  A    between atoms: _279  and  _280
REMARK  123  A    between atoms: _283  and  _285
REMARK  124  A    between atoms: _285  and  _286
REMARK  125  A    between atoms: _285  and  _288
REMARK  126  A    between atoms: _288  and  _289
REMARK  127  A    between atoms: _295  and  _297
REMARK  128  A    between atoms: _297  and  _298
REMARK  129  A    between atoms: _297  and  _300
REMARK  130  A    between atoms: _302  and  _304
REMARK  131  A    between atoms: _304  and  _305
REMARK  132  A    between atoms: _304  and  _307
REMARK  133  A    between atoms: _307  and  _308
REMARK  134  A    between atoms: _308  and  _309
REMARK  135  A    between atoms: _309  and  _310
REMARK  136  A    between atoms: _310  and  _311
REMARK  137  A    between atoms: _315  and  _317
REMARK  138  A    between atoms: _317  and  _318
REMARK  139  A    between atoms: _317  and  _320
REMARK  140  A    between atoms: _320  and  _321
REMARK  141  A    between atoms: _327  and  _329
REMARK  142  A    between atoms: _329  and  _330
REMARK  143  A    between atoms: _332  and  _334
REMARK  144  A    between atoms: _334  and  _335
REMARK  145  A    between atoms: _334  and  _337
REMARK  146  A    between atoms: _337  and  _338
REMARK  147  A    between atoms: _343  and  _345
REMARK  148  A    between atoms: _345  and  _346
REMARK  149  A    between atoms: _348  and  _350
REMARK  150  A    between atoms: _350  and  _351
REMARK  151  A    between atoms: _350  and  _353
REMARK  152  A    between atoms: _353  and  _354
REMARK  153  A    between atoms: _354  and  _355
REMARK  154  A    between atoms: _357  and  _359
REMARK  155  A    between atoms: _359  and  _360
REMARK  156  A    between atoms: _359  and  _362
REMARK  157  A    between atoms: _362  and  _363
REMARK  158  A    between atoms: _369  and  _371
REMARK  159  A    between atoms: _371  and  _372
REMARK  160  A    between atoms: _371  and  _374
REMARK  161  A    between atoms: _374  and  _375
REMARK  162  A    between atoms: _378  and  _380
REMARK  163  A    between atoms: _380  and  _381
REMARK  164  A    between atoms: _380  and  _383
REMARK  165  A    between atoms: _383  and  _384
REMARK  166  A    between atoms: _384  and  _385
REMARK  167  A    between atoms: _385  and  _386
REMARK  168  A    between atoms: _386  and  _387
REMARK  169  A    between atoms: _391  and  _393
REMARK  170  A    between atoms: _393  and  _394
REMARK  171  A    between atoms: _393  and  _396
REMARK  172  A    between atoms: _398  and  _400
REMARK  173  A    between atoms: _400  and  _401
REMARK  174  A    between atoms: _400  and  _403
REMARK  175  A    between atoms: _403  and  _404
REMARK  176  A    between atoms: _407  and  _409
REMARK  177  A    between atoms: _409  and  _410
REMARK  178  A    between atoms: _409  and  _412
REMARK  179  A    between atoms: _412  and  _413
REMARK  180  A    between atoms: _418  and  _420
REMARK  181  A    between atoms: _420  and  _421
REMARK  182  A    between atoms: _420  and  _423
REMARK  183  A    between atoms: _423  and  _424
REMARK  184  A    between atoms: _424  and  _425
REMARK  185  A    between atoms: _425  and  _426
REMARK  186  A    between atoms: _435  and  _437
REMARK  187  A    between atoms: _437  and  _438
REMARK  188  A    between atoms: _437  and  _440
REMARK  189  A    between atoms: _440  and  _441
REMARK  190  A    between atoms: _444  and  _446
REMARK  191  A    between atoms: _446  and  _447
REMARK  192  A    between atoms: _446  and  _449
REMARK  193  A    between atoms: _449  and  _450
REMARK  194  A    between atoms: _455  and  _457
REMARK  195  A    between atoms: _457  and  _458
REMARK  196  A    between atoms: _457  and  _460
REMARK  197  A    between atoms: _460  and  _461
REMARK  198  A    between atoms: _464  and  _466
REMARK  199  A    between atoms: _466  and  _467
REMARK  200  A    between atoms: _466  and  _469
REMARK  201  A    between atoms: _469  and  _470
REMARK  202  A    between atoms: _473  and  _475
REMARK  203  A    between atoms: _475  and  _476
REMARK  204  A    between atoms: _475  and  _478
REMARK  205  A    between atoms: _478  and  _479
REMARK  206  A    between atoms: _481  and  _483
REMARK  207  A    between atoms: _483  and  _484
REMARK  208  A    between atoms: _483  and  _486
REMARK  209  A    between atoms: _486  and  _487
REMARK  210  A    between atoms: _487  and  _488
REMARK  211  A    between atoms: _488  and  _489
REMARK  212  A    between atoms: _489  and  _490
REMARK  213  A    between atoms: _494  and  _496
REMARK  214  A    between atoms: _496  and  _497
REMARK  215  A    between atoms: _496  and  _499
REMARK  216  A    between atoms: _499  and  _500
REMARK  217  A    between atoms: _503  and  _505
REMARK  218  A    between atoms: _505  and  _506
REMARK  219  A    between atoms: _505  and  _508
REMARK  220  A    between atoms: _510  and  _512
REMARK  221  A    between atoms: _512  and  _513
REMARK  222  A    between atoms: _512  and  _515
REMARK  223  A    between atoms: _515  and  _516
REMARK  224  A    between atoms: _519  and  _521
REMARK  225  A    between atoms: _521  and  _522
REMARK  226  A    between atoms: _521  and  _524
REMARK  227  A    between atoms: _524  and  _525
REMARK  228  A    between atoms: _531  and  _533
REMARK  229  A    between atoms: _533  and  _534
REMARK  230  A    between atoms: _536  and  _538
REMARK  231  A    between atoms: _538  and  _539
REMARK  232  A    between atoms: _538  and  _541
REMARK  233  A    between atoms: _541  and  _542
REMARK                            x       y       z     vdW  Elec       q    Type
REMARK                         _______ _______ _______ _____ _____    ______ ____
ROOT
ATOM      1  O   HOH     1      43.801  29.024  19.455  0.00  0.00    +0.000 OA
ENDROOT
TORSDOF 0
REMARK  Name = ../refined-set-2016/2qu6/2qu6_pocket.pdb
REMARK  233 active torsions:
REMARK  status: ('A' for Active; 'I' for Inactive)
REMARK    1  A    between atoms: _1  and  _3
REMARK    2  A    between atoms: _3  and  _4
REMARK    3  A    between atoms: _3  and  _6
REMARK    4  A    between atoms: _6  and  _7
REMARK    5  A    between atoms: _7  and  _8
REMARK    6  A    between atoms: _8  and  _9
REMARK    7  A    between atoms: _9  and  _10
REMARK    8  A    between atoms: _15  and  _16
REMARK    9  A    between atoms: _21  and  _23
REMARK   10  A    between atoms: _23  and  _24
REMARK   11  A    between atoms: _23  and  _26
REMARK   12  A    between atoms: _26  and  _27
REMARK   13  A    between atoms: _30  and  _32
REMARK   14  A    between atoms: _32  and  _33
REMARK   15  A    between atoms: _32  and  _35
REMARK   16  A    between atoms: _35  and  _36
REMARK   17  A    between atoms: _36  and  _37
REMARK   18  A    between atoms: _42  and  _44
REMARK   19  A    between atoms: _44  and  _45
REMARK   20  A    between atoms: _44  and  _47
REMARK   21  A    between atoms: _50  and  _52
REMARK   22  A    between atoms: _52  and  _53
REMARK   23  A    between atoms: _52  and  _55
REMARK   24  A    between atoms: _55  and  _56
REMARK   25  A    between atoms: _59  and  _61
REMARK   26  A    between atoms: _61  and  _62
REMARK   27  A    between atoms: _61  and  _64
REMARK   28  A    between atoms: _64  and  _65
REMARK   29  A    between atoms: _65  and  _66
REMARK   30  A    between atoms: _69  and  _71
REMARK   31  A    between atoms: _71  and  _72
REMARK   32  A    between atoms: _71  and  _74
REMARK   33  A    between atoms: _74  and  _75
REMARK   34  A    between atoms: _78  and  _80
REMARK   35  A    between atoms: _80  and  _81
REMARK   36  A    between atoms: _80  and  _83
REMARK   37  A    between atoms: _86  and  _88
REMARK   38  A    between atoms: _88  and  _89
REMARK   39  A    between atoms: _92  and  _94
REMARK   40  A    between atoms: _94  and  _95
REMARK   41  A    between atoms: _94  and  _97
REMARK   42  A    between atoms: _100  and  _102
REMARK   43  A    between atoms: _102  and  _103
REMARK   44  A    between atoms: _102  and  _105
REMARK   45  A    between atoms: _105  and  _106
REMARK   46  A    between atoms: _106  and  _107
REMARK   47  A    between atoms: _107  and  _108
REMARK   48  A    between atoms: _108  and  _109
REMARK   49  A    between atoms: _113  and  _115
REMARK   50  A    between atoms: _115  and  _116
REMARK   51  A    between atoms: _115  and  _118
REMARK   52  A    between atoms: _118  and  _119
REMARK   53  A    between atoms: _119  and  _120
REMARK   54  A    between atoms: _122  and  _124
REMARK   55  A    between atoms: _124  and  _125
REMARK   56  A    between atoms: _128  and  _130
REMARK   57  A    between atoms: _130  and  _131
REMARK   58  A    between atoms: _130  and  _133
REMARK   59  A    between atoms: _133  and  _134
REMARK   60  A    between atoms: _137  and  _139
REMARK   61  A    between atoms: _139  and  _140
REMARK   62  A    between atoms: _139  and  _142
REMARK   63  A    between atoms: _142  and  _143
REMARK   64  A    between atoms: _145  and  _147
REMARK   65  A    between atoms: _147  and  _148
REMARK   66  A    between atoms: _147  and  _150
REMARK   67  A    between atoms: _150  and  _151
REMARK   68  A    between atoms: _151  and  _152
REMARK   69  A    between atoms: _155  and  _157
REMARK   70  A    between atoms: _157  and  _158
REMARK   71  A    between atoms: _157  and  _160
REMARK   72  A    between atoms: _160  and  _161
REMARK   73  A    between atoms: _164  and  _166
REMARK   74  A    between atoms: _166  and  _167
REMARK   75  A    between atoms: _166  and  _169
REMARK   76  A    between atoms: _169  and  _170
REMARK   77  A    between atoms: _173  and  _175
REMARK   78  A    between atoms: _175  and  _176
REMARK   79  A    between atoms: _175  and  _178
REMARK   80  A    between atoms: _178  and  _179
REMARK   81  A    between atoms: _182  and  _184
REMARK   82  A    between atoms: _184  and  _185
REMARK   83  A    between atoms: _184  and  _187
REMARK   84  A    between atoms: _187  and  _188
REMARK   85  A    between atoms: _191  and  _193
REMARK   86  A    between atoms: _193  and  _194
REMARK   87  A    between atoms: _193  and  _196
REMARK   88  A    between atoms: _196  and  _197
REMARK   89  A    between atoms: _202  and  _204
REMARK   90  A    between atoms: _204  and  _205
REMARK   91  A    between atoms: _204  and  _207
REMARK   92  A    between atoms: _210  and  _212
REMARK   93  A    between atoms: _212  and  _213
REMARK   94  A    between atoms: _212  and  _215
REMARK   95  A    between atoms: _218  and  _220
REMARK   96  A    between atoms: _220  and  _221
REMARK   97  A    between atoms: _220  and  _223
REMARK   98  A    between atoms: _223  and  _224
REMARK   99  A    between atoms: _229  and  _231
REMARK  100  A    between atoms: _231  and  _232
REMARK  101  A    between atoms: _231  and  _234
REMARK  102  A    between atoms: _234  and  _235
REMARK  103  A    between atoms: _238  and  _240
REMARK  104  A    between atoms: _240  and  _241
REMARK  105  A    between atoms: _240  and  _243
REMARK  106  A    between atoms: _243  and  _244
REMARK  107  A    between atoms: _247  and  _249
REMARK  108  A    between atoms: _249  and  _250
REMARK  109  A    between atoms: _249  and  _252
REMARK  110  A    between atoms: _255  and  _257
REMARK  111  A    between atoms: _257  and  _258
REMARK  112  A    between atoms: _257  and  _260
REMARK  113  A    between atoms: _260  and  _261
REMARK  114  A    between atoms: _264  and  _266
REMARK  115  A    between atoms: _266  and  _267
REMARK  116  A    between atoms: _266  and  _269
REMARK  117  A    between atoms: _269  and  _270
REMARK  118  A    between atoms: _273  and  _275
REMARK  119  A    between atoms: _275  and  _276
REMARK  120  A    between atoms: _275  and  _278
REMARK  121  A    between atoms: _278  and  _279
REMARK  122  A    between atoms: _279  and  _280
REMARK  123  A    between atoms: _283  and  _285
REMARK  124  A    between atoms: _285  and  _286
REMARK  125  A    between atoms: _285  and  _288
REMARK  126  A    between atoms: _288  and  _289
REMARK  127  A    between atoms: _295  and  _297
REMARK  128  A    between atoms: _297  and  _298
REMARK  129  A    between atoms: _297  and  _300
REMARK  130  A    between atoms: _302  and  _304
REMARK  131  A    between atoms: _304  and  _305
REMARK  132  A    between atoms: _304  and  _307
REMARK  133  A    between atoms: _307  and  _308
REMARK  134  A    between atoms: _308  and  _309
REMARK  135  A    between atoms: _309  and  _310
REMARK  136  A    between atoms: _310  and  _311
REMARK  137  A    between atoms: _315  and  _317
REMARK  138  A    between atoms: _317  and  _318
REMARK  139  A    between atoms: _317  and  _320
REMARK  140  A    between atoms: _320  and  _321
REMARK  141  A    between atoms: _327  and  _329
REMARK  142  A    between atoms: _329  and  _330
REMARK  143  A    between atoms: _332  and  _334
REMARK  144  A    between atoms: _334  and  _335
REMARK  145  A    between atoms: _334  and  _337
REMARK  146  A    between atoms: _337  and  _338
REMARK  147  A    between atoms: _343  and  _345
REMARK  148  A    between atoms: _345  and  _346
REMARK  149  A    between atoms: _348  and  _350
REMARK  150  A    between atoms: _350  and  _351
REMARK  151  A    between atoms: _350  and  _353
REMARK  152  A    between atoms: _353  and  _354
REMARK  153  A    between atoms: _354  and  _355
REMARK  154  A    between atoms: _357  and  _359
REMARK  155  A    between atoms: _359  and  _360
REMARK  156  A    between atoms: _359  and  _362
REMARK  157  A    between atoms: _362  and  _363
REMARK  158  A    between atoms: _369  and  _371
REMARK  159  A    between atoms: _371  and  _372
REMARK  160  A    between atoms: _371  and  _374
REMARK  161  A    between atoms: _374  and  _375
REMARK  162  A    between atoms: _378  and  _380
REMARK  163  A    between atoms: _380  and  _381
REMARK  164  A    between atoms: _380  and  _383
REMARK  165  A    between atoms: _383  and  _384
REMARK  166  A    between atoms: _384  and  _385
REMARK  167  A    between atoms: _385  and  _386
REMARK  168  A    between atoms: _386  and  _387
REMARK  169  A    between atoms: _391  and  _393
REMARK  170  A    between atoms: _393  and  _394
REMARK  171  A    between atoms: _393  and  _396
REMARK  172  A    between atoms: _398  and  _400
REMARK  173  A    between atoms: _400  and  _401
REMARK  174  A    between atoms: _400  and  _403
REMARK  175  A    between atoms: _403  and  _404
REMARK  176  A    between atoms: _407  and  _409
REMARK  177  A    between atoms: _409  and  _410
REMARK  178  A    between atoms: _409  and  _412
REMARK  179  A    between atoms: _412  and  _413
REMARK  180  A    between atoms: _418  and  _420
REMARK  181  A    between atoms: _420  and  _421
REMARK  182  A    between atoms: _420  and  _423
REMARK  183  A    between atoms: _423  and  _424
REMARK  184  A    between atoms: _424  and  _425
REMARK  185  A    between atoms: _425  and  _426
REMARK  186  A    between atoms: _435  and  _437
REMARK  187  A    between atoms: _437  and  _438
REMARK  188  A    between atoms: _437  and  _440
REMARK  189  A    between atoms: _440  and  _441
REMARK  190  A    between atoms: _444  and  _446
REMARK  191  A    between atoms: _446  and  _447
REMARK  192  A    between atoms: _446  and  _449
REMARK  193  A    between atoms: _449  and  _450
REMARK  194  A    between atoms: _455  and  _457
REMARK  195  A    between atoms: _457  and  _458
REMARK  196  A    between atoms: _457  and  _460
REMARK  197  A    between atoms: _460  and  _461
REMARK  198  A    between atoms: _464  and  _466
REMARK  199  A    between atoms: _466  and  _467
REMARK  200  A    between atoms: _466  and  _469
REMARK  201  A    between atoms: _469  and  _470
REMARK  202  A    between atoms: _473  and  _475
REMARK  203  A    between atoms: _475  and  _476
REMARK  204  A    between atoms: _475  and  _478
REMARK  205  A    between atoms: _478  and  _479
REMARK  206  A    between atoms: _481  and  _483
REMARK  207  A    between atoms: _483  and  _484
REMARK  208  A    between atoms: _483  and  _486
REMARK  209  A    between atoms: _486  and  _487
REMARK  210  A    between atoms: _487  and  _488
REMARK  211  A    between atoms: _488  and  _489
REMARK  212  A    between atoms: _489  and  _490
REMARK  213  A    between atoms: _494  and  _496
REMARK  214  A    between atoms: _496  and  _497
REMARK  215  A    between atoms: _496  and  _499
REMARK  216  A    between atoms: _499  and  _500
REMARK  217  A    between atoms: _503  and  _505
REMARK  218  A    between atoms: _505  and  _506
REMARK  219  A    between atoms: _505  and  _508
REMARK  220  A    between atoms: _510  and  _512
REMARK  221  A    between atoms: _512  and  _513
REMARK  222  A    between atoms: _512  and  _515
REMARK  223  A    between atoms: _515  and  _516
REMARK  224  A    between atoms: _519  and  _521
REMARK  225  A    between atoms: _521  and  _522
REMARK  226  A    between atoms: _521  and  _524
REMARK  227  A    between atoms: _524  and  _525
REMARK  228  A    between atoms: _531  and  _533
REMARK  229  A    between atoms: _533  and  _534
REMARK  230  A    between atoms: _536  and  _538
REMARK  231  A    between atoms: _538  and  _539
REMARK  232  A    between atoms: _538  and  _541
REMARK  233  A    between atoms: _541  and  _542
REMARK                            x       y       z     vdW  Elec       q    Type
REMARK                         _______ _______ _______ _____ _____    ______ ____
ROOT
ATOM      1  O   HOH     1      46.201  26.488  20.732  0.00  0.00    +0.000 OA
ENDROOT
TORSDOF 0
REMARK  Name = ../refined-set-2016/2qu6/2qu6_pocket.pdb
REMARK  233 active torsions:
REMARK  status: ('A' for Active; 'I' for Inactive)
REMARK    1  A    between atoms: _1  and  _3
REMARK    2  A    between atoms: _3  and  _4
REMARK    3  A    between atoms: _3  and  _6
REMARK    4  A    between atoms: _6  and  _7
REMARK    5  A    between atoms: _7  and  _8
REMARK    6  A    between atoms: _8  and  _9
REMARK    7  A    between atoms: _9  and  _10
REMARK    8  A    between atoms: _15  and  _16
REMARK    9  A    between atoms: _21  and  _23
REMARK   10  A    between atoms: _23  and  _24
REMARK   11  A    between atoms: _23  and  _26
REMARK   12  A    between atoms: _26  and  _27
REMARK   13  A    between atoms: _30  and  _32
REMARK   14  A    between atoms: _32  and  _33
REMARK   15  A    between atoms: _32  and  _35
REMARK   16  A    between atoms: _35  and  _36
REMARK   17  A    between atoms: _36  and  _37
REMARK   18  A    between atoms: _42  and  _44
REMARK   19  A    between atoms: _44  and  _45
REMARK   20  A    between atoms: _44  and  _47
REMARK   21  A    between atoms: _50  and  _52
REMARK   22  A    between atoms: _52  and  _53
REMARK   23  A    between atoms: _52  and  _55
REMARK   24  A    between atoms: _55  and  _56
REMARK   25  A    between atoms: _59  and  _61
REMARK   26  A    between atoms: _61  and  _62
REMARK   27  A    between atoms: _61  and  _64
REMARK   28  A    between atoms: _64  and  _65
REMARK   29  A    between atoms: _65  and  _66
REMARK   30  A    between atoms: _69  and  _71
REMARK   31  A    between atoms: _71  and  _72
REMARK   32  A    between atoms: _71  and  _74
REMARK   33  A    between atoms: _74  and  _75
REMARK   34  A    between atoms: _78  and  _80
REMARK   35  A    between atoms: _80  and  _81
REMARK   36  A    between atoms: _80  and  _83
REMARK   37  A    between atoms: _86  and  _88
REMARK   38  A    between atoms: _88  and  _89
REMARK   39  A    between atoms: _92  and  _94
REMARK   40  A    between atoms: _94  and  _95
REMARK   41  A    between atoms: _94  and  _97
REMARK   42  A    between atoms: _100  and  _102
REMARK   43  A    between atoms: _102  and  _103
REMARK   44  A    between atoms: _102  and  _105
REMARK   45  A    between atoms: _105  and  _106
REMARK   46  A    between atoms: _106  and  _107
REMARK   47  A    between atoms: _107  and  _108
REMARK   48  A    between atoms: _108  and  _109
REMARK   49  A    between atoms: _113  and  _115
REMARK   50  A    between atoms: _115  and  _116
REMARK   51  A    between atoms: _115  and  _118
REMARK   52  A    between atoms: _118  and  _119
REMARK   53  A    between atoms: _119  and  _120
REMARK   54  A    between atoms: _122  and  _124
REMARK   55  A    between atoms: _124  and  _125
REMARK   56  A    between atoms: _128  and  _130
REMARK   57  A    between atoms: _130  and  _131
REMARK   58  A    between atoms: _130  and  _133
REMARK   59  A    between atoms: _133  and  _134
REMARK   60  A    between atoms: _137  and  _139
REMARK   61  A    between atoms: _139  and  _140
REMARK   62  A    between atoms: _139  and  _142
REMARK   63  A    between atoms: _142  and  _143
REMARK   64  A    between atoms: _145  and  _147
REMARK   65  A    between atoms: _147  and  _148
REMARK   66  A    between atoms: _147  and  _150
REMARK   67  A    between atoms: _150  and  _151
REMARK   68  A    between atoms: _151  and  _152
REMARK   69  A    between atoms: _155  and  _157
REMARK   70  A    between atoms: _157  and  _158
REMARK   71  A    between atoms: _157  and  _160
REMARK   72  A    between atoms: _160  and  _161
REMARK   73  A    between atoms: _164  and  _166
REMARK   74  A    between atoms: _166  and  _167
REMARK   75  A    between atoms: _166  and  _169
REMARK   76  A    between atoms: _169  and  _170
REMARK   77  A    between atoms: _173  and  _175
REMARK   78  A    between atoms: _175  and  _176
REMARK   79  A    between atoms: _175  and  _178
REMARK   80  A    between atoms: _178  and  _179
REMARK   81  A    between atoms: _182  and  _184
REMARK   82  A    between atoms: _184  and  _185
REMARK   83  A    between atoms: _184  and  _187
REMARK   84  A    between atoms: _187  and  _188
REMARK   85  A    between atoms: _191  and  _193
REMARK   86  A    between atoms: _193  and  _194
REMARK   87  A    between atoms: _193  and  _196
REMARK   88  A    between atoms: _196  and  _197
REMARK   89  A    between atoms: _202  and  _204
REMARK   90  A    between atoms: _204  and  _205
REMARK   91  A    between atoms: _204  and  _207
REMARK   92  A    between atoms: _210  and  _212
REMARK   93  A    between atoms: _212  and  _213
REMARK   94  A    between atoms: _212  and  _215
REMARK   95  A    between atoms: _218  and  _220
REMARK   96  A    between atoms: _220  and  _221
REMARK   97  A    between atoms: _220  and  _223
REMARK   98  A    between atoms: _223  and  _224
REMARK   99  A    between atoms: _229  and  _231
REMARK  100  A    between atoms: _231  and  _232
REMARK  101  A    between atoms: _231  and  _234
REMARK  102  A    between atoms: _234  and  _235
REMARK  103  A    between atoms: _238  and  _240
REMARK  104  A    between atoms: _240  and  _241
REMARK  105  A    between atoms: _240  and  _243
REMARK  106  A    between atoms: _243  and  _244
REMARK  107  A    between atoms: _247  and  _249
REMARK  108  A    between atoms: _249  and  _250
REMARK  109  A    between atoms: _249  and  _252
REMARK  110  A    between atoms: _255  and  _257
REMARK  111  A    between atoms: _257  and  _258
REMARK  112  A    between atoms: _257  and  _260
REMARK  113  A    between atoms: _260  and  _261
REMARK  114  A    between atoms: _264  and  _266
REMARK  115  A    between atoms: _266  and  _267
REMARK  116  A    between atoms: _266  and  _269
REMARK  117  A    between atoms: _269  and  _270
REMARK  118  A    between atoms: _273  and  _275
REMARK  119  A    between atoms: _275  and  _276
REMARK  120  A    between atoms: _275  and  _278
REMARK  121  A    between atoms: _278  and  _279
REMARK  122  A    between atoms: _279  and  _280
REMARK  123  A    between atoms: _283  and  _285
REMARK  124  A    between atoms: _285  and  _286
REMARK  125  A    between atoms: _285  and  _288
REMARK  126  A    between atoms: _288  and  _289
REMARK  127  A    between atoms: _295  and  _297
REMARK  128  A    between atoms: _297  and  _298
REMARK  129  A    between atoms: _297  and  _300
REMARK  130  A    between atoms: _302  and  _304
REMARK  131  A    between atoms: _304  and  _305
REMARK  132  A    between atoms: _304  and  _307
REMARK  133  A    between atoms: _307  and  _308
REMARK  134  A    between atoms: _308  and  _309
REMARK  135  A    between atoms: _309  and  _310
REMARK  136  A    between atoms: _310  and  _311
REMARK  137  A    between atoms: _315  and  _317
REMARK  138  A    between atoms: _317  and  _318
REMARK  139  A    between atoms: _317  and  _320
REMARK  140  A    between atoms: _320  and  _321
REMARK  141  A    between atoms: _327  and  _329
REMARK  142  A    between atoms: _329  and  _330
REMARK  143  A    between atoms: _332  and  _334
REMARK  144  A    between atoms: _334  and  _335
REMARK  145  A    between atoms: _334  and  _337
REMARK  146  A    between atoms: _337  and  _338
REMARK  147  A    between atoms: _343  and  _345
REMARK  148  A    between atoms: _345  and  _346
REMARK  149  A    between atoms: _348  and  _350
REMARK  150  A    between atoms: _350  and  _351
REMARK  151  A    between atoms: _350  and  _353
REMARK  152  A    between atoms: _353  and  _354
REMARK  153  A    between atoms: _354  and  _355
REMARK  154  A    between atoms: _357  and  _359
REMARK  155  A    between atoms: _359  and  _360
REMARK  156  A    between atoms: _359  and  _362
REMARK  157  A    between atoms: _362  and  _363
REMARK  158  A    between atoms: _369  and  _371
REMARK  159  A    between atoms: _371  and  _372
REMARK  160  A    between atoms: _371  and  _374
REMARK  161  A    between atoms: _374  and  _375
REMARK  162  A    between atoms: _378  and  _380
REMARK  163  A    between atoms: _380  and  _381
REMARK  164  A    between atoms: _380  and  _383
REMARK  165  A    between atoms: _383  and  _384
REMARK  166  A    between atoms: _384  and  _385
REMARK  167  A    between atoms: _385  and  _386
REMARK  168  A    between atoms: _386  and  _387
REMARK  169  A    between atoms: _391  and  _393
REMARK  170  A    between atoms: _393  and  _394
REMARK  171  A    between atoms: _393  and  _396
REMARK  172  A    between atoms: _398  and  _400
REMARK  173  A    between atoms: _400  and  _401
REMARK  174  A    between atoms: _400  and  _403
REMARK  175  A    between atoms: _403  and  _404
REMARK  176  A    between atoms: _407  and  _409
REMARK  177  A    between atoms: _409  and  _410
REMARK  178  A    between atoms: _409  and  _412
REMARK  179  A    between atoms: _412  and  _413
REMARK  180  A    between atoms: _418  and  _420
REMARK  181  A    between atoms: _420  and  _421
REMARK  182  A    between atoms: _420  and  _423
REMARK  183  A    between atoms: _423  and  _424
REMARK  184  A    between atoms: _424  and  _425
REMARK  185  A    between atoms: _425  and  _426
REMARK  186  A    between atoms: _435  and  _437
REMARK  187  A    between atoms: _437  and  _438
REMARK  188  A    between atoms: _437  and  _440
REMARK  189  A    between atoms: _440  and  _441
REMARK  190  A    between atoms: _444  and  _446
REMARK  191  A    between atoms: _446  and  _447
REMARK  192  A    between atoms: _446  and  _449
REMARK  193  A    between atoms: _449  and  _450
REMARK  194  A    between atoms: _455  and  _457
REMARK  195  A    between atoms: _457  and  _458
REMARK  196  A    between atoms: _457  and  _460
REMARK  197  A    between atoms: _460  and  _461
REMARK  198  A    between atoms: _464  and  _466
REMARK  199  A    between atoms: _466  and  _467
REMARK  200  A    between atoms: _466  and  _469
REMARK  201  A    between atoms: _469  and  _470
REMARK  202  A    between atoms: _473  and  _475
REMARK  203  A    between atoms: _475  and  _476
REMARK  204  A    between atoms: _475  and  _478
REMARK  205  A    between atoms: _478  and  _479
REMARK  206  A    between atoms: _481  and  _483
REMARK  207  A    between atoms: _483  and  _484
REMARK  208  A    between atoms: _483  and  _486
REMARK  209  A    between atoms: _486  and  _487
REMARK  210  A    between atoms: _487  and  _488
REMARK  211  A    between atoms: _488  and  _489
REMARK  212  A    between atoms: _489  and  _490
REMARK  213  A    between atoms: _494  and  _496
REMARK  214  A    between atoms: _496  and  _497
REMARK  215  A    between atoms: _496  and  _499
REMARK  216  A    between atoms: _499  and  _500
REMARK  217  A    between atoms: _503  and  _505
REMARK  218  A    between atoms: _505  and  _506
REMARK  219  A    between atoms: _505  and  _508
REMARK  220  A    between atoms: _510  and  _512
REMARK  221  A    between atoms: _512  and  _513
REMARK  222  A    between atoms: _512  and  _515
REMARK  223  A    between atoms: _515  and  _516
REMARK  224  A    between atoms: _519  and  _521
REMARK  225  A    between atoms: _521  and  _522
REMARK  226  A    between atoms: _521  and  _524
REMARK  227  A    between atoms: _524  and  _525
REMARK  228  A    between atoms: _531  and  _533
REMARK  229  A    between atoms: _533  and  _534
REMARK  230  A    between atoms: _536  and  _538
REMARK  231  A    between atoms: _538  and  _539
REMARK  232  A    between atoms: _538  and  _541
REMARK  233  A    between atoms: _541  and  _542
REMARK                            x       y       z     vdW  Elec       q    Type
REMARK                         _______ _______ _______ _____ _____    ______ ____
ROOT
ATOM      1  O   HOH     1      44.783  31.457  19.136  0.00  0.00    +0.000 OA
ENDROOT
TORSDOF 0
REMARK  Name = ../refined-set-2016/2qu6/2qu6_pocket.pdb
REMARK  233 active torsions:
REMARK  status: ('A' for Active; 'I' for Inactive)
REMARK    1  A    between atoms: _1  and  _3
REMARK    2  A    between atoms: _3  and  _4
REMARK    3  A    between atoms: _3  and  _6
REMARK    4  A    between atoms: _6  and  _7
REMARK    5  A    between atoms: _7  and  _8
REMARK    6  A    between atoms: _8  and  _9
REMARK    7  A    between atoms: _9  and  _10
REMARK    8  A    between atoms: _15  and  _16
REMARK    9  A    between atoms: _21  and  _23
REMARK   10  A    between atoms: _23  and  _24
REMARK   11  A    between atoms: _23  and  _26
REMARK   12  A    between atoms: _26  and  _27
REMARK   13  A    between atoms: _30  and  _32
REMARK   14  A    between atoms: _32  and  _33
REMARK   15  A    between atoms: _32  and  _35
REMARK   16  A    between atoms: _35  and  _36
REMARK   17  A    between atoms: _36  and  _37
REMARK   18  A    between atoms: _42  and  _44
REMARK   19  A    between atoms: _44  and  _45
REMARK   20  A    between atoms: _44  and  _47
REMARK   21  A    between atoms: _50  and  _52
REMARK   22  A    between atoms: _52  and  _53
REMARK   23  A    between atoms: _52  and  _55
REMARK   24  A    between atoms: _55  and  _56
REMARK   25  A    between atoms: _59  and  _61
REMARK   26  A    between atoms: _61  and  _62
REMARK   27  A    between atoms: _61  and  _64
REMARK   28  A    between atoms: _64  and  _65
REMARK   29  A    between atoms: _65  and  _66
REMARK   30  A    between atoms: _69  and  _71
REMARK   31  A    between atoms: _71  and  _72
REMARK   32  A    between atoms: _71  and  _74
REMARK   33  A    between atoms: _74  and  _75
REMARK   34  A    between atoms: _78  and  _80
REMARK   35  A    between atoms: _80  and  _81
REMARK   36  A    between atoms: _80  and  _83
REMARK   37  A    between atoms: _86  and  _88
REMARK   38  A    between atoms: _88  and  _89
REMARK   39  A    between atoms: _92  and  _94
REMARK   40  A    between atoms: _94  and  _95
REMARK   41  A    between atoms: _94  and  _97
REMARK   42  A    between atoms: _100  and  _102
REMARK   43  A    between atoms: _102  and  _103
REMARK   44  A    between atoms: _102  and  _105
REMARK   45  A    between atoms: _105  and  _106
REMARK   46  A    between atoms: _106  and  _107
REMARK   47  A    between atoms: _107  and  _108
REMARK   48  A    between atoms: _108  and  _109
REMARK   49  A    between atoms: _113  and  _115
REMARK   50  A    between atoms: _115  and  _116
REMARK   51  A    between atoms: _115  and  _118
REMARK   52  A    between atoms: _118  and  _119
REMARK   53  A    between atoms: _119  and  _120
REMARK   54  A    between atoms: _122  and  _124
REMARK   55  A    between atoms: _124  and  _125
REMARK   56  A    between atoms: _128  and  _130
REMARK   57  A    between atoms: _130  and  _131
REMARK   58  A    between atoms: _130  and  _133
REMARK   59  A    between atoms: _133  and  _134
REMARK   60  A    between atoms: _137  and  _139
REMARK   61  A    between atoms: _139  and  _140
REMARK   62  A    between atoms: _139  and  _142
REMARK   63  A    between atoms: _142  and  _143
REMARK   64  A    between atoms: _145  and  _147
REMARK   65  A    between atoms: _147  and  _148
REMARK   66  A    between atoms: _147  and  _150
REMARK   67  A    between atoms: _150  and  _151
REMARK   68  A    between atoms: _151  and  _152
REMARK   69  A    between atoms: _155  and  _157
REMARK   70  A    between atoms: _157  and  _158
REMARK   71  A    between atoms: _157  and  _160
REMARK   72  A    between atoms: _160  and  _161
REMARK   73  A    between atoms: _164  and  _166
REMARK   74  A    between atoms: _166  and  _167
REMARK   75  A    between atoms: _166  and  _169
REMARK   76  A    between atoms: _169  and  _170
REMARK   77  A    between atoms: _173  and  _175
REMARK   78  A    between atoms: _175  and  _176
REMARK   79  A    between atoms: _175  and  _178
REMARK   80  A    between atoms: _178  and  _179
REMARK   81  A    between atoms: _182  and  _184
REMARK   82  A    between atoms: _184  and  _185
REMARK   83  A    between atoms: _184  and  _187
REMARK   84  A    between atoms: _187  and  _188
REMARK   85  A    between atoms: _191  and  _193
REMARK   86  A    between atoms: _193  and  _194
REMARK   87  A    between atoms: _193  and  _196
REMARK   88  A    between atoms: _196  and  _197
REMARK   89  A    between atoms: _202  and  _204
REMARK   90  A    between atoms: _204  and  _205
REMARK   91  A    between atoms: _204  and  _207
REMARK   92  A    between atoms: _210  and  _212
REMARK   93  A    between atoms: _212  and  _213
REMARK   94  A    between atoms: _212  and  _215
REMARK   95  A    between atoms: _218  and  _220
REMARK   96  A    between atoms: _220  and  _221
REMARK   97  A    between atoms: _220  and  _223
REMARK   98  A    between atoms: _223  and  _224
REMARK   99  A    between atoms: _229  and  _231
REMARK  100  A    between atoms: _231  and  _232
REMARK  101  A    between atoms: _231  and  _234
REMARK  102  A    between atoms: _234  and  _235
REMARK  103  A    between atoms: _238  and  _240
REMARK  104  A    between atoms: _240  and  _241
REMARK  105  A    between atoms: _240  and  _243
REMARK  106  A    between atoms: _243  and  _244
REMARK  107  A    between atoms: _247  and  _249
REMARK  108  A    between atoms: _249  and  _250
REMARK  109  A    between atoms: _249  and  _252
REMARK  110  A    between atoms: _255  and  _257
REMARK  111  A    between atoms: _257  and  _258
REMARK  112  A    between atoms: _257  and  _260
REMARK  113  A    between atoms: _260  and  _261
REMARK  114  A    between atoms: _264  and  _266
REMARK  115  A    between atoms: _266  and  _267
REMARK  116  A    between atoms: _266  and  _269
REMARK  117  A    between atoms: _269  and  _270
REMARK  118  A    between atoms: _273  and  _275
REMARK  119  A    between atoms: _275  and  _276
REMARK  120  A    between atoms: _275  and  _278
REMARK  121  A    between atoms: _278  and  _279
REMARK  122  A    between atoms: _279  and  _280
REMARK  123  A    between atoms: _283  and  _285
REMARK  124  A    between atoms: _285  and  _286
REMARK  125  A    between atoms: _285  and  _288
REMARK  126  A    between atoms: _288  and  _289
REMARK  127  A    between atoms: _295  and  _297
REMARK  128  A    between atoms: _297  and  _298
REMARK  129  A    between atoms: _297  and  _300
REMARK  130  A    between atoms: _302  and  _304
REMARK  131  A    between atoms: _304  and  _305
REMARK  132  A    between atoms: _304  and  _307
REMARK  133  A    between atoms: _307  and  _308
REMARK  134  A    between atoms: _308  and  _309
REMARK  135  A    between atoms: _309  and  _310
REMARK  136  A    between atoms: _310  and  _311
REMARK  137  A    between atoms: _315  and  _317
REMARK  138  A    between atoms: _317  and  _318
REMARK  139  A    between atoms: _317  and  _320
REMARK  140  A    between atoms: _320  and  _321
REMARK  141  A    between atoms: _327  and  _329
REMARK  142  A    between atoms: _329  and  _330
REMARK  143  A    between atoms: _332  and  _334
REMARK  144  A    between atoms: _334  and  _335
REMARK  145  A    between atoms: _334  and  _337
REMARK  146  A    between atoms: _337  and  _338
REMARK  147  A    between atoms: _343  and  _345
REMARK  148  A    between atoms: _345  and  _346
REMARK  149  A    between atoms: _348  and  _350
REMARK  150  A    between atoms: _350  and  _351
REMARK  151  A    between atoms: _350  and  _353
REMARK  152  A    between atoms: _353  and  _354
REMARK  153  A    between atoms: _354  and  _355
REMARK  154  A    between atoms: _357  and  _359
REMARK  155  A    between atoms: _359  and  _360
REMARK  156  A    between atoms: _359  and  _362
REMARK  157  A    between atoms: _362  and  _363
REMARK  158  A    between atoms: _369  and  _371
REMARK  159  A    between atoms: _371  and  _372
REMARK  160  A    between atoms: _371  and  _374
REMARK  161  A    between atoms: _374  and  _375
REMARK  162  A    between atoms: _378  and  _380
REMARK  163  A    between atoms: _380  and  _381
REMARK  164  A    between atoms: _380  and  _383
REMARK  165  A    between atoms: _383  and  _384
REMARK  166  A    between atoms: _384  and  _385
REMARK  167  A    between atoms: _385  and  _386
REMARK  168  A    between atoms: _386  and  _387
REMARK  169  A    between atoms: _391  and  _393
REMARK  170  A    between atoms: _393  and  _394
REMARK  171  A    between atoms: _393  and  _396
REMARK  172  A    between atoms: _398  and  _400
REMARK  173  A    between atoms: _400  and  _401
REMARK  174  A    between atoms: _400  and  _403
REMARK  175  A    between atoms: _403  and  _404
REMARK  176  A    between atoms: _407  and  _409
REMARK  177  A    between atoms: _409  and  _410
REMARK  178  A    between atoms: _409  and  _412
REMARK  179  A    between atoms: _412  and  _413
REMARK  180  A    between atoms: _418  and  _420
REMARK  181  A    between atoms: _420  and  _421
REMARK  182  A    between atoms: _420  and  _423
REMARK  183  A    between atoms: _423  and  _424
REMARK  184  A    between atoms: _424  and  _425
REMARK  185  A    between atoms: _425  and  _426
REMARK  186  A    between atoms: _435  and  _437
REMARK  187  A    between atoms: _437  and  _438
REMARK  188  A    between atoms: _437  and  _440
REMARK  189  A    between atoms: _440  and  _441
REMARK  190  A    between atoms: _444  and  _446
REMARK  191  A    between atoms: _446  and  _447
REMARK  192  A    between atoms: _446  and  _449
REMARK  193  A    between atoms: _449  and  _450
REMARK  194  A    between atoms: _455  and  _457
REMARK  195  A    between atoms: _457  and  _458
REMARK  196  A    between atoms: _457  and  _460
REMARK  197  A    between atoms: _460  and  _461
REMARK  198  A    between atoms: _464  and  _466
REMARK  199  A    between atoms: _466  and  _467
REMARK  200  A    between atoms: _466  and  _469
REMARK  201  A    between atoms: _469  and  _470
REMARK  202  A    between atoms: _473  and  _475
REMARK  203  A    between atoms: _475  and  _476
REMARK  204  A    between atoms: _475  and  _478
REMARK  205  A    between atoms: _478  and  _479
REMARK  206  A    between atoms: _481  and  _483
REMARK  207  A    between atoms: _483  and  _484
REMARK  208  A    between atoms: _483  and  _486
REMARK  209  A    between atoms: _486  and  _487
REMARK  210  A    between atoms: _487  and  _488
REMARK  211  A    between atoms: _488  and  _489
REMARK  212  A    between atoms: _489  and  _490
REMARK  213  A    between atoms: _494  and  _496
REMARK  214  A    between atoms: _496  and  _497
REMARK  215  A    between atoms: _496  and  _499
REMARK  216  A    between atoms: _499  and  _500
REMARK  217  A    between atoms: _503  and  _505
REMARK  218  A    between atoms: _505  and  _506
REMARK  219  A    between atoms: _505  and  _508
REMARK  220  A    between atoms: _510  and  _512
REMARK  221  A    between atoms: _512  and  _513
REMARK  222  A    between atoms: _512  and  _515
REMARK  223  A    between atoms: _515  and  _516
REMARK  224  A    between atoms: _519  and  _521
REMARK  225  A    between atoms: _521  and  _522
REMARK  226  A    between atoms: _521  and  _524
REMARK  227  A    between atoms: _524  and  _525
REMARK  228  A    between atoms: _531  and  _533
REMARK  229  A    between atoms: _533  and  _534
REMARK  230  A    between atoms: _536  and  _538
REMARK  231  A    between atoms: _538  and  _539
REMARK  232  A    between atoms: _538  and  _541
REMARK  233  A    between atoms: _541  and  _542
REMARK                            x       y       z     vdW  Elec       q    Type
REMARK                         _______ _______ _______ _____ _____    ______ ____
ROOT
ATOM      1  O   HOH     1      36.491  39.089   4.373  0.00  0.00    +0.000 OA
ENDROOT
TORSDOF 0
REMARK  Name = ../refined-set-2016/2qu6/2qu6_pocket.pdb
REMARK  233 active torsions:
REMARK  status: ('A' for Active; 'I' for Inactive)
REMARK    1  A    between atoms: _1  and  _3
REMARK    2  A    between atoms: _3  and  _4
REMARK    3  A    between atoms: _3  and  _6
REMARK    4  A    between atoms: _6  and  _7
REMARK    5  A    between atoms: _7  and  _8
REMARK    6  A    between atoms: _8  and  _9
REMARK    7  A    between atoms: _9  and  _10
REMARK    8  A    between atoms: _15  and  _16
REMARK    9  A    between atoms: _21  and  _23
REMARK   10  A    between atoms: _23  and  _24
REMARK   11  A    between atoms: _23  and  _26
REMARK   12  A    between atoms: _26  and  _27
REMARK   13  A    between atoms: _30  and  _32
REMARK   14  A    between atoms: _32  and  _33
REMARK   15  A    between atoms: _32  and  _35
REMARK   16  A    between atoms: _35  and  _36
REMARK   17  A    between atoms: _36  and  _37
REMARK   18  A    between atoms: _42  and  _44
REMARK   19  A    between atoms: _44  and  _45
REMARK   20  A    between atoms: _44  and  _47
REMARK   21  A    between atoms: _50  and  _52
REMARK   22  A    between atoms: _52  and  _53
REMARK   23  A    between atoms: _52  and  _55
REMARK   24  A    between atoms: _55  and  _56
REMARK   25  A    between atoms: _59  and  _61
REMARK   26  A    between atoms: _61  and  _62
REMARK   27  A    between atoms: _61  and  _64
REMARK   28  A    between atoms: _64  and  _65
REMARK   29  A    between atoms: _65  and  _66
REMARK   30  A    between atoms: _69  and  _71
REMARK   31  A    between atoms: _71  and  _72
REMARK   32  A    between atoms: _71  and  _74
REMARK   33  A    between atoms: _74  and  _75
REMARK   34  A    between atoms: _78  and  _80
REMARK   35  A    between atoms: _80  and  _81
REMARK   36  A    between atoms: _80  and  _83
REMARK   37  A    between atoms: _86  and  _88
REMARK   38  A    between atoms: _88  and  _89
REMARK   39  A    between atoms: _92  and  _94
REMARK   40  A    between atoms: _94  and  _95
REMARK   41  A    between atoms: _94  and  _97
REMARK   42  A    between atoms: _100  and  _102
REMARK   43  A    between atoms: _102  and  _103
REMARK   44  A    between atoms: _102  and  _105
REMARK   45  A    between atoms: _105  and  _106
REMARK   46  A    between atoms: _106  and  _107
REMARK   47  A    between atoms: _107  and  _108
REMARK   48  A    between atoms: _108  and  _109
REMARK   49  A    between atoms: _113  and  _115
REMARK   50  A    between atoms: _115  and  _116
REMARK   51  A    between atoms: _115  and  _118
REMARK   52  A    between atoms: _118  and  _119
REMARK   53  A    between atoms: _119  and  _120
REMARK   54  A    between atoms: _122  and  _124
REMARK   55  A    between atoms: _124  and  _125
REMARK   56  A    between atoms: _128  and  _130
REMARK   57  A    between atoms: _130  and  _131
REMARK   58  A    between atoms: _130  and  _133
REMARK   59  A    between atoms: _133  and  _134
REMARK   60  A    between atoms: _137  and  _139
REMARK   61  A    between atoms: _139  and  _140
REMARK   62  A    between atoms: _139  and  _142
REMARK   63  A    between atoms: _142  and  _143
REMARK   64  A    between atoms: _145  and  _147
REMARK   65  A    between atoms: _147  and  _148
REMARK   66  A    between atoms: _147  and  _150
REMARK   67  A    between atoms: _150  and  _151
REMARK   68  A    between atoms: _151  and  _152
REMARK   69  A    between atoms: _155  and  _157
REMARK   70  A    between atoms: _157  and  _158
REMARK   71  A    between atoms: _157  and  _160
REMARK   72  A    between atoms: _160  and  _161
REMARK   73  A    between atoms: _164  and  _166
REMARK   74  A    between atoms: _166  and  _167
REMARK   75  A    between atoms: _166  and  _169
REMARK   76  A    between atoms: _169  and  _170
REMARK   77  A    between atoms: _173  and  _175
REMARK   78  A    between atoms: _175  and  _176
REMARK   79  A    between atoms: _175  and  _178
REMARK   80  A    between atoms: _178  and  _179
REMARK   81  A    between atoms: _182  and  _184
REMARK   82  A    between atoms: _184  and  _185
REMARK   83  A    between atoms: _184  and  _187
REMARK   84  A    between atoms: _187  and  _188
REMARK   85  A    between atoms: _191  and  _193
REMARK   86  A    between atoms: _193  and  _194
REMARK   87  A    between atoms: _193  and  _196
REMARK   88  A    between atoms: _196  and  _197
REMARK   89  A    between atoms: _202  and  _204
REMARK   90  A    between atoms: _204  and  _205
REMARK   91  A    between atoms: _204  and  _207
REMARK   92  A    between atoms: _210  and  _212
REMARK   93  A    between atoms: _212  and  _213
REMARK   94  A    between atoms: _212  and  _215
REMARK   95  A    between atoms: _218  and  _220
REMARK   96  A    between atoms: _220  and  _221
REMARK   97  A    between atoms: _220  and  _223
REMARK   98  A    between atoms: _223  and  _224
REMARK   99  A    between atoms: _229  and  _231
REMARK  100  A    between atoms: _231  and  _232
REMARK  101  A    between atoms: _231  and  _234
REMARK  102  A    between atoms: _234  and  _235
REMARK  103  A    between atoms: _238  and  _240
REMARK  104  A    between atoms: _240  and  _241
REMARK  105  A    between atoms: _240  and  _243
REMARK  106  A    between atoms: _243  and  _244
REMARK  107  A    between atoms: _247  and  _249
REMARK  108  A    between atoms: _249  and  _250
REMARK  109  A    between atoms: _249  and  _252
REMARK  110  A    between atoms: _255  and  _257
REMARK  111  A    between atoms: _257  and  _258
REMARK  112  A    between atoms: _257  and  _260
REMARK  113  A    between atoms: _260  and  _261
REMARK  114  A    between atoms: _264  and  _266
REMARK  115  A    between atoms: _266  and  _267
REMARK  116  A    between atoms: _266  and  _269
REMARK  117  A    between atoms: _269  and  _270
REMARK  118  A    between atoms: _273  and  _275
REMARK  119  A    between atoms: _275  and  _276
REMARK  120  A    between atoms: _275  and  _278
REMARK  121  A    between atoms: _278  and  _279
REMARK  122  A    between atoms: _279  and  _280
REMARK  123  A    between atoms: _283  and  _285
REMARK  124  A    between atoms: _285  and  _286
REMARK  125  A    between atoms: _285  and  _288
REMARK  126  A    between atoms: _288  and  _289
REMARK  127  A    between atoms: _295  and  _297
REMARK  128  A    between atoms: _297  and  _298
REMARK  129  A    between atoms: _297  and  _300
REMARK  130  A    between atoms: _302  and  _304
REMARK  131  A    between atoms: _304  and  _305
REMARK  132  A    between atoms: _304  and  _307
REMARK  133  A    between atoms: _307  and  _308
REMARK  134  A    between atoms: _308  and  _309
REMARK  135  A    between atoms: _309  and  _310
REMARK  136  A    between atoms: _310  and  _311
REMARK  137  A    between atoms: _315  and  _317
REMARK  138  A    between atoms: _317  and  _318
REMARK  139  A    between atoms: _317  and  _320
REMARK  140  A    between atoms: _320  and  _321
REMARK  141  A    between atoms: _327  and  _329
REMARK  142  A    between atoms: _329  and  _330
REMARK  143  A    between atoms: _332  and  _334
REMARK  144  A    between atoms: _334  and  _335
REMARK  145  A    between atoms: _334  and  _337
REMARK  146  A    between atoms: _337  and  _338
REMARK  147  A    between atoms: _343  and  _345
REMARK  148  A    between atoms: _345  and  _346
REMARK  149  A    between atoms: _348  and  _350
REMARK  150  A    between atoms: _350  and  _351
REMARK  151  A    between atoms: _350  and  _353
REMARK  152  A    between atoms: _353  and  _354
REMARK  153  A    between atoms: _354  and  _355
REMARK  154  A    between atoms: _357  and  _359
REMARK  155  A    between atoms: _359  and  _360
REMARK  156  A    between atoms: _359  and  _362
REMARK  157  A    between atoms: _362  and  _363
REMARK  158  A    between atoms: _369  and  _371
REMARK  159  A    between atoms: _371  and  _372
REMARK  160  A    between atoms: _371  and  _374
REMARK  161  A    between atoms: _374  and  _375
REMARK  162  A    between atoms: _378  and  _380
REMARK  163  A    between atoms: _380  and  _381
REMARK  164  A    between atoms: _380  and  _383
REMARK  165  A    between atoms: _383  and  _384
REMARK  166  A    between atoms: _384  and  _385
REMARK  167  A    between atoms: _385  and  _386
REMARK  168  A    between atoms: _386  and  _387
REMARK  169  A    between atoms: _391  and  _393
REMARK  170  A    between atoms: _393  and  _394
REMARK  171  A    between atoms: _393  and  _396
REMARK  172  A    between atoms: _398  and  _400
REMARK  173  A    between atoms: _400  and  _401
REMARK  174  A    between atoms: _400  and  _403
REMARK  175  A    between atoms: _403  and  _404
REMARK  176  A    between atoms: _407  and  _409
REMARK  177  A    between atoms: _409  and  _410
REMARK  178  A    between atoms: _409  and  _412
REMARK  179  A    between atoms: _412  and  _413
REMARK  180  A    between atoms: _418  and  _420
REMARK  181  A    between atoms: _420  and  _421
REMARK  182  A    between atoms: _420  and  _423
REMARK  183  A    between atoms: _423  and  _424
REMARK  184  A    between atoms: _424  and  _425
REMARK  185  A    between atoms: _425  and  _426
REMARK  186  A    between atoms: _435  and  _437
REMARK  187  A    between atoms: _437  and  _438
REMARK  188  A    between atoms: _437  and  _440
REMARK  189  A    between atoms: _440  and  _441
REMARK  190  A    between atoms: _444  and  _446
REMARK  191  A    between atoms: _446  and  _447
REMARK  192  A    between atoms: _446  and  _449
REMARK  193  A    between atoms: _449  and  _450
REMARK  194  A    between atoms: _455  and  _457
REMARK  195  A    between atoms: _457  and  _458
REMARK  196  A    between atoms: _457  and  _460
REMARK  197  A    between atoms: _460  and  _461
REMARK  198  A    between atoms: _464  and  _466
REMARK  199  A    between atoms: _466  and  _467
REMARK  200  A    between atoms: _466  and  _469
REMARK  201  A    between atoms: _469  and  _470
REMARK  202  A    between atoms: _473  and  _475
REMARK  203  A    between atoms: _475  and  _476
REMARK  204  A    between atoms: _475  and  _478
REMARK  205  A    between atoms: _478  and  _479
REMARK  206  A    between atoms: _481  and  _483
REMARK  207  A    between atoms: _483  and  _484
REMARK  208  A    between atoms: _483  and  _486
REMARK  209  A    between atoms: _486  and  _487
REMARK  210  A    between atoms: _487  and  _488
REMARK  211  A    between atoms: _488  and  _489
REMARK  212  A    between atoms: _489  and  _490
REMARK  213  A    between atoms: _494  and  _496
REMARK  214  A    between atoms: _496  and  _497
REMARK  215  A    between atoms: _496  and  _499
REMARK  216  A    between atoms: _499  and  _500
REMARK  217  A    between atoms: _503  and  _505
REMARK  218  A    between atoms: _505  and  _506
REMARK  219  A    between atoms: _505  and  _508
REMARK  220  A    between atoms: _510  and  _512
REMARK  221  A    between atoms: _512  and  _513
REMARK  222  A    between atoms: _512  and  _515
REMARK  223  A    between atoms: _515  and  _516
REMARK  224  A    between atoms: _519  and  _521
REMARK  225  A    between atoms: _521  and  _522
REMARK  226  A    between atoms: _521  and  _524
REMARK  227  A    between atoms: _524  and  _525
REMARK  228  A    between atoms: _531  and  _533
REMARK  229  A    between atoms: _533  and  _534
REMARK  230  A    between atoms: _536  and  _538
REMARK  231  A    between atoms: _538  and  _539
REMARK  232  A    between atoms: _538  and  _541
REMARK  233  A    between atoms: _541  and  _542
REMARK                            x       y       z     vdW  Elec       q    Type
REMARK                         _______ _______ _______ _____ _____    ______ ____
ROOT
ATOM      1  O   HOH     1      36.856  36.606   4.685  0.00  0.00    +0.000 OA
ENDROOT
TORSDOF 0
REMARK  Name = ../refined-set-2016/2qu6/2qu6_pocket.pdb
REMARK  233 active torsions:
REMARK  status: ('A' for Active; 'I' for Inactive)
REMARK    1  A    between atoms: _1  and  _3
REMARK    2  A    between atoms: _3  and  _4
REMARK    3  A    between atoms: _3  and  _6
REMARK    4  A    between atoms: _6  and  _7
REMARK    5  A    between atoms: _7  and  _8
REMARK    6  A    between atoms: _8  and  _9
REMARK    7  A    between atoms: _9  and  _10
REMARK    8  A    between atoms: _15  and  _16
REMARK    9  A    between atoms: _21  and  _23
REMARK   10  A    between atoms: _23  and  _24
REMARK   11  A    between atoms: _23  and  _26
REMARK   12  A    between atoms: _26  and  _27
REMARK   13  A    between atoms: _30  and  _32
REMARK   14  A    between atoms: _32  and  _33
REMARK   15  A    between atoms: _32  and  _35
REMARK   16  A    between atoms: _35  and  _36
REMARK   17  A    between atoms: _36  and  _37
REMARK   18  A    between atoms: _42  and  _44
REMARK   19  A    between atoms: _44  and  _45
REMARK   20  A    between atoms: _44  and  _47
REMARK   21  A    between atoms: _50  and  _52
REMARK   22  A    between atoms: _52  and  _53
REMARK   23  A    between atoms: _52  and  _55
REMARK   24  A    between atoms: _55  and  _56
REMARK   25  A    between atoms: _59  and  _61
REMARK   26  A    between atoms: _61  and  _62
REMARK   27  A    between atoms: _61  and  _64
REMARK   28  A    between atoms: _64  and  _65
REMARK   29  A    between atoms: _65  and  _66
REMARK   30  A    between atoms: _69  and  _71
REMARK   31  A    between atoms: _71  and  _72
REMARK   32  A    between atoms: _71  and  _74
REMARK   33  A    between atoms: _74  and  _75
REMARK   34  A    between atoms: _78  and  _80
REMARK   35  A    between atoms: _80  and  _81
REMARK   36  A    between atoms: _80  and  _83
REMARK   37  A    between atoms: _86  and  _88
REMARK   38  A    between atoms: _88  and  _89
REMARK   39  A    between atoms: _92  and  _94
REMARK   40  A    between atoms: _94  and  _95
REMARK   41  A    between atoms: _94  and  _97
REMARK   42  A    between atoms: _100  and  _102
REMARK   43  A    between atoms: _102  and  _103
REMARK   44  A    between atoms: _102  and  _105
REMARK   45  A    between atoms: _105  and  _106
REMARK   46  A    between atoms: _106  and  _107
REMARK   47  A    between atoms: _107  and  _108
REMARK   48  A    between atoms: _108  and  _109
REMARK   49  A    between atoms: _113  and  _115
REMARK   50  A    between atoms: _115  and  _116
REMARK   51  A    between atoms: _115  and  _118
REMARK   52  A    between atoms: _118  and  _119
REMARK   53  A    between atoms: _119  and  _120
REMARK   54  A    between atoms: _122  and  _124
REMARK   55  A    between atoms: _124  and  _125
REMARK   56  A    between atoms: _128  and  _130
REMARK   57  A    between atoms: _130  and  _131
REMARK   58  A    between atoms: _130  and  _133
REMARK   59  A    between atoms: _133  and  _134
REMARK   60  A    between atoms: _137  and  _139
REMARK   61  A    between atoms: _139  and  _140
REMARK   62  A    between atoms: _139  and  _142
REMARK   63  A    between atoms: _142  and  _143
REMARK   64  A    between atoms: _145  and  _147
REMARK   65  A    between atoms: _147  and  _148
REMARK   66  A    between atoms: _147  and  _150
REMARK   67  A    between atoms: _150  and  _151
REMARK   68  A    between atoms: _151  and  _152
REMARK   69  A    between atoms: _155  and  _157
REMARK   70  A    between atoms: _157  and  _158
REMARK   71  A    between atoms: _157  and  _160
REMARK   72  A    between atoms: _160  and  _161
REMARK   73  A    between atoms: _164  and  _166
REMARK   74  A    between atoms: _166  and  _167
REMARK   75  A    between atoms: _166  and  _169
REMARK   76  A    between atoms: _169  and  _170
REMARK   77  A    between atoms: _173  and  _175
REMARK   78  A    between atoms: _175  and  _176
REMARK   79  A    between atoms: _175  and  _178
REMARK   80  A    between atoms: _178  and  _179
REMARK   81  A    between atoms: _182  and  _184
REMARK   82  A    between atoms: _184  and  _185
REMARK   83  A    between atoms: _184  and  _187
REMARK   84  A    between atoms: _187  and  _188
REMARK   85  A    between atoms: _191  and  _193
REMARK   86  A    between atoms: _193  and  _194
REMARK   87  A    between atoms: _193  and  _196
REMARK   88  A    between atoms: _196  and  _197
REMARK   89  A    between atoms: _202  and  _204
REMARK   90  A    between atoms: _204  and  _205
REMARK   91  A    between atoms: _204  and  _207
REMARK   92  A    between atoms: _210  and  _212
REMARK   93  A    between atoms: _212  and  _213
REMARK   94  A    between atoms: _212  and  _215
REMARK   95  A    between atoms: _218  and  _220
REMARK   96  A    between atoms: _220  and  _221
REMARK   97  A    between atoms: _220  and  _223
REMARK   98  A    between atoms: _223  and  _224
REMARK   99  A    between atoms: _229  and  _231
REMARK  100  A    between atoms: _231  and  _232
REMARK  101  A    between atoms: _231  and  _234
REMARK  102  A    between atoms: _234  and  _235
REMARK  103  A    between atoms: _238  and  _240
REMARK  104  A    between atoms: _240  and  _241
REMARK  105  A    between atoms: _240  and  _243
REMARK  106  A    between atoms: _243  and  _244
REMARK  107  A    between atoms: _247  and  _249
REMARK  108  A    between atoms: _249  and  _250
REMARK  109  A    between atoms: _249  and  _252
REMARK  110  A    between atoms: _255  and  _257
REMARK  111  A    between atoms: _257  and  _258
REMARK  112  A    between atoms: _257  and  _260
REMARK  113  A    between atoms: _260  and  _261
REMARK  114  A    between atoms: _264  and  _266
REMARK  115  A    between atoms: _266  and  _267
REMARK  116  A    between atoms: _266  and  _269
REMARK  117  A    between atoms: _269  and  _270
REMARK  118  A    between atoms: _273  and  _275
REMARK  119  A    between atoms: _275  and  _276
REMARK  120  A    between atoms: _275  and  _278
REMARK  121  A    between atoms: _278  and  _279
REMARK  122  A    between atoms: _279  and  _280
REMARK  123  A    between atoms: _283  and  _285
REMARK  124  A    between atoms: _285  and  _286
REMARK  125  A    between atoms: _285  and  _288
REMARK  126  A    between atoms: _288  and  _289
REMARK  127  A    between atoms: _295  and  _297
REMARK  128  A    between atoms: _297  and  _298
REMARK  129  A    between atoms: _297  and  _300
REMARK  130  A    between atoms: _302  and  _304
REMARK  131  A    between atoms: _304  and  _305
REMARK  132  A    between atoms: _304  and  _307
REMARK  133  A    between atoms: _307  and  _308
REMARK  134  A    between atoms: _308  and  _309
REMARK  135  A    between atoms: _309  and  _310
REMARK  136  A    between atoms: _310  and  _311
REMARK  137  A    between atoms: _315  and  _317
REMARK  138  A    between atoms: _317  and  _318
REMARK  139  A    between atoms: _317  and  _320
REMARK  140  A    between atoms: _320  and  _321
REMARK  141  A    between atoms: _327  and  _329
REMARK  142  A    between atoms: _329  and  _330
REMARK  143  A    between atoms: _332  and  _334
REMARK  144  A    between atoms: _334  and  _335
REMARK  145  A    between atoms: _334  and  _337
REMARK  146  A    between atoms: _337  and  _338
REMARK  147  A    between atoms: _343  and  _345
REMARK  148  A    between atoms: _345  and  _346
REMARK  149  A    between atoms: _348  and  _350
REMARK  150  A    between atoms: _350  and  _351
REMARK  151  A    between atoms: _350  and  _353
REMARK  152  A    between atoms: _353  and  _354
REMARK  153  A    between atoms: _354  and  _355
REMARK  154  A    between atoms: _357  and  _359
REMARK  155  A    between atoms: _359  and  _360
REMARK  156  A    between atoms: _359  and  _362
REMARK  157  A    between atoms: _362  and  _363
REMARK  158  A    between atoms: _369  and  _371
REMARK  159  A    between atoms: _371  and  _372
REMARK  160  A    between atoms: _371  and  _374
REMARK  161  A    between atoms: _374  and  _375
REMARK  162  A    between atoms: _378  and  _380
REMARK  163  A    between atoms: _380  and  _381
REMARK  164  A    between atoms: _380  and  _383
REMARK  165  A    between atoms: _383  and  _384
REMARK  166  A    between atoms: _384  and  _385
REMARK  167  A    between atoms: _385  and  _386
REMARK  168  A    between atoms: _386  and  _387
REMARK  169  A    between atoms: _391  and  _393
REMARK  170  A    between atoms: _393  and  _394
REMARK  171  A    between atoms: _393  and  _396
REMARK  172  A    between atoms: _398  and  _400
REMARK  173  A    between atoms: _400  and  _401
REMARK  174  A    between atoms: _400  and  _403
REMARK  175  A    between atoms: _403  and  _404
REMARK  176  A    between atoms: _407  and  _409
REMARK  177  A    between atoms: _409  and  _410
REMARK  178  A    between atoms: _409  and  _412
REMARK  179  A    between atoms: _412  and  _413
REMARK  180  A    between atoms: _418  and  _420
REMARK  181  A    between atoms: _420  and  _421
REMARK  182  A    between atoms: _420  and  _423
REMARK  183  A    between atoms: _423  and  _424
REMARK  184  A    between atoms: _424  and  _425
REMARK  185  A    between atoms: _425  and  _426
REMARK  186  A    between atoms: _435  and  _437
REMARK  187  A    between atoms: _437  and  _438
REMARK  188  A    between atoms: _437  and  _440
REMARK  189  A    between atoms: _440  and  _441
REMARK  190  A    between atoms: _444  and  _446
REMARK  191  A    between atoms: _446  and  _447
REMARK  192  A    between atoms: _446  and  _449
REMARK  193  A    between atoms: _449  and  _450
REMARK  194  A    between atoms: _455  and  _457
REMARK  195  A    between atoms: _457  and  _458
REMARK  196  A    between atoms: _457  and  _460
REMARK  197  A    between atoms: _460  and  _461
REMARK  198  A    between atoms: _464  and  _466
REMARK  199  A    between atoms: _466  and  _467
REMARK  200  A    between atoms: _466  and  _469
REMARK  201  A    between atoms: _469  and  _470
REMARK  202  A    between atoms: _473  and  _475
REMARK  203  A    between atoms: _475  and  _476
REMARK  204  A    between atoms: _475  and  _478
REMARK  205  A    between atoms: _478  and  _479
REMARK  206  A    between atoms: _481  and  _483
REMARK  207  A    between atoms: _483  and  _484
REMARK  208  A    between atoms: _483  and  _486
REMARK  209  A    between atoms: _486  and  _487
REMARK  210  A    between atoms: _487  and  _488
REMARK  211  A    between atoms: _488  and  _489
REMARK  212  A    between atoms: _489  and  _490
REMARK  213  A    between atoms: _494  and  _496
REMARK  214  A    between atoms: _496  and  _497
REMARK  215  A    between atoms: _496  and  _499
REMARK  216  A    between atoms: _499  and  _500
REMARK  217  A    between atoms: _503  and  _505
REMARK  218  A    between atoms: _505  and  _506
REMARK  219  A    between atoms: _505  and  _508
REMARK  220  A    between atoms: _510  and  _512
REMARK  221  A    between atoms: _512  and  _513
REMARK  222  A    between atoms: _512  and  _515
REMARK  223  A    between atoms: _515  and  _516
REMARK  224  A    between atoms: _519  and  _521
REMARK  225  A    between atoms: _521  and  _522
REMARK  226  A    between atoms: _521  and  _524
REMARK  227  A    between atoms: _524  and  _525
REMARK  228  A    between atoms: _531  and  _533
REMARK  229  A    between atoms: _533  and  _534
REMARK  230  A    between atoms: _536  and  _538
REMARK  231  A    between atoms: _538  and  _539
REMARK  232  A    between atoms: _538  and  _541
REMARK  233  A    between atoms: _541  and  _542
REMARK                            x       y       z     vdW  Elec       q    Type
REMARK                         _______ _______ _______ _____ _____    ______ ____
ROOT
ATOM      1  O   HOH     1      47.396  24.890  18.113  0.00  0.00    +0.000 OA
ENDROOT
TORSDOF 0
REMARK  Name = ../refined-set-2016/2qu6/2qu6_pocket.pdb
REMARK  233 active torsions:
REMARK  status: ('A' for Active; 'I' for Inactive)
REMARK    1  A    between atoms: _1  and  _3
REMARK    2  A    between atoms: _3  and  _4
REMARK    3  A    between atoms: _3  and  _6
REMARK    4  A    between atoms: _6  and  _7
REMARK    5  A    between atoms: _7  and  _8
REMARK    6  A    between atoms: _8  and  _9
REMARK    7  A    between atoms: _9  and  _10
REMARK    8  A    between atoms: _15  and  _16
REMARK    9  A    between atoms: _21  and  _23
REMARK   10  A    between atoms: _23  and  _24
REMARK   11  A    between atoms: _23  and  _26
REMARK   12  A    between atoms: _26  and  _27
REMARK   13  A    between atoms: _30  and  _32
REMARK   14  A    between atoms: _32  and  _33
REMARK   15  A    between atoms: _32  and  _35
REMARK   16  A    between atoms: _35  and  _36
REMARK   17  A    between atoms: _36  and  _37
REMARK   18  A    between atoms: _42  and  _44
REMARK   19  A    between atoms: _44  and  _45
REMARK   20  A    between atoms: _44  and  _47
REMARK   21  A    between atoms: _50  and  _52
REMARK   22  A    between atoms: _52  and  _53
REMARK   23  A    between atoms: _52  and  _55
REMARK   24  A    between atoms: _55  and  _56
REMARK   25  A    between atoms: _59  and  _61
REMARK   26  A    between atoms: _61  and  _62
REMARK   27  A    between atoms: _61  and  _64
REMARK   28  A    between atoms: _64  and  _65
REMARK   29  A    between atoms: _65  and  _66
REMARK   30  A    between atoms: _69  and  _71
REMARK   31  A    between atoms: _71  and  _72
REMARK   32  A    between atoms: _71  and  _74
REMARK   33  A    between atoms: _74  and  _75
REMARK   34  A    between atoms: _78  and  _80
REMARK   35  A    between atoms: _80  and  _81
REMARK   36  A    between atoms: _80  and  _83
REMARK   37  A    between atoms: _86  and  _88
REMARK   38  A    between atoms: _88  and  _89
REMARK   39  A    between atoms: _92  and  _94
REMARK   40  A    between atoms: _94  and  _95
REMARK   41  A    between atoms: _94  and  _97
REMARK   42  A    between atoms: _100  and  _102
REMARK   43  A    between atoms: _102  and  _103
REMARK   44  A    between atoms: _102  and  _105
REMARK   45  A    between atoms: _105  and  _106
REMARK   46  A    between atoms: _106  and  _107
REMARK   47  A    between atoms: _107  and  _108
REMARK   48  A    between atoms: _108  and  _109
REMARK   49  A    between atoms: _113  and  _115
REMARK   50  A    between atoms: _115  and  _116
REMARK   51  A    between atoms: _115  and  _118
REMARK   52  A    between atoms: _118  and  _119
REMARK   53  A    between atoms: _119  and  _120
REMARK   54  A    between atoms: _122  and  _124
REMARK   55  A    between atoms: _124  and  _125
REMARK   56  A    between atoms: _128  and  _130
REMARK   57  A    between atoms: _130  and  _131
REMARK   58  A    between atoms: _130  and  _133
REMARK   59  A    between atoms: _133  and  _134
REMARK   60  A    between atoms: _137  and  _139
REMARK   61  A    between atoms: _139  and  _140
REMARK   62  A    between atoms: _139  and  _142
REMARK   63  A    between atoms: _142  and  _143
REMARK   64  A    between atoms: _145  and  _147
REMARK   65  A    between atoms: _147  and  _148
REMARK   66  A    between atoms: _147  and  _150
REMARK   67  A    between atoms: _150  and  _151
REMARK   68  A    between atoms: _151  and  _152
REMARK   69  A    between atoms: _155  and  _157
REMARK   70  A    between atoms: _157  and  _158
REMARK   71  A    between atoms: _157  and  _160
REMARK   72  A    between atoms: _160  and  _161
REMARK   73  A    between atoms: _164  and  _166
REMARK   74  A    between atoms: _166  and  _167
REMARK   75  A    between atoms: _166  and  _169
REMARK   76  A    between atoms: _169  and  _170
REMARK   77  A    between atoms: _173  and  _175
REMARK   78  A    between atoms: _175  and  _176
REMARK   79  A    between atoms: _175  and  _178
REMARK   80  A    between atoms: _178  and  _179
REMARK   81  A    between atoms: _182  and  _184
REMARK   82  A    between atoms: _184  and  _185
REMARK   83  A    between atoms: _184  and  _187
REMARK   84  A    between atoms: _187  and  _188
REMARK   85  A    between atoms: _191  and  _193
REMARK   86  A    between atoms: _193  and  _194
REMARK   87  A    between atoms: _193  and  _196
REMARK   88  A    between atoms: _196  and  _197
REMARK   89  A    between atoms: _202  and  _204
REMARK   90  A    between atoms: _204  and  _205
REMARK   91  A    between atoms: _204  and  _207
REMARK   92  A    between atoms: _210  and  _212
REMARK   93  A    between atoms: _212  and  _213
REMARK   94  A    between atoms: _212  and  _215
REMARK   95  A    between atoms: _218  and  _220
REMARK   96  A    between atoms: _220  and  _221
REMARK   97  A    between atoms: _220  and  _223
REMARK   98  A    between atoms: _223  and  _224
REMARK   99  A    between atoms: _229  and  _231
REMARK  100  A    between atoms: _231  and  _232
REMARK  101  A    between atoms: _231  and  _234
REMARK  102  A    between atoms: _234  and  _235
REMARK  103  A    between atoms: _238  and  _240
REMARK  104  A    between atoms: _240  and  _241
REMARK  105  A    between atoms: _240  and  _243
REMARK  106  A    between atoms: _243  and  _244
REMARK  107  A    between atoms: _247  and  _249
REMARK  108  A    between atoms: _249  and  _250
REMARK  109  A    between atoms: _249  and  _252
REMARK  110  A    between atoms: _255  and  _257
REMARK  111  A    between atoms: _257  and  _258
REMARK  112  A    between atoms: _257  and  _260
REMARK  113  A    between atoms: _260  and  _261
REMARK  114  A    between atoms: _264  and  _266
REMARK  115  A    between atoms: _266  and  _267
REMARK  116  A    between atoms: _266  and  _269
REMARK  117  A    between atoms: _269  and  _270
REMARK  118  A    between atoms: _273  and  _275
REMARK  119  A    between atoms: _275  and  _276
REMARK  120  A    between atoms: _275  and  _278
REMARK  121  A    between atoms: _278  and  _279
REMARK  122  A    between atoms: _279  and  _280
REMARK  123  A    between atoms: _283  and  _285
REMARK  124  A    between atoms: _285  and  _286
REMARK  125  A    between atoms: _285  and  _288
REMARK  126  A    between atoms: _288  and  _289
REMARK  127  A    between atoms: _295  and  _297
REMARK  128  A    between atoms: _297  and  _298
REMARK  129  A    between atoms: _297  and  _300
REMARK  130  A    between atoms: _302  and  _304
REMARK  131  A    between atoms: _304  and  _305
REMARK  132  A    between atoms: _304  and  _307
REMARK  133  A    between atoms: _307  and  _308
REMARK  134  A    between atoms: _308  and  _309
REMARK  135  A    between atoms: _309  and  _310
REMARK  136  A    between atoms: _310  and  _311
REMARK  137  A    between atoms: _315  and  _317
REMARK  138  A    between atoms: _317  and  _318
REMARK  139  A    between atoms: _317  and  _320
REMARK  140  A    between atoms: _320  and  _321
REMARK  141  A    between atoms: _327  and  _329
REMARK  142  A    between atoms: _329  and  _330
REMARK  143  A    between atoms: _332  and  _334
REMARK  144  A    between atoms: _334  and  _335
REMARK  145  A    between atoms: _334  and  _337
REMARK  146  A    between atoms: _337  and  _338
REMARK  147  A    between atoms: _343  and  _345
REMARK  148  A    between atoms: _345  and  _346
REMARK  149  A    between atoms: _348  and  _350
REMARK  150  A    between atoms: _350  and  _351
REMARK  151  A    between atoms: _350  and  _353
REMARK  152  A    between atoms: _353  and  _354
REMARK  153  A    between atoms: _354  and  _355
REMARK  154  A    between atoms: _357  and  _359
REMARK  155  A    between atoms: _359  and  _360
REMARK  156  A    between atoms: _359  and  _362
REMARK  157  A    between atoms: _362  and  _363
REMARK  158  A    between atoms: _369  and  _371
REMARK  159  A    between atoms: _371  and  _372
REMARK  160  A    between atoms: _371  and  _374
REMARK  161  A    between atoms: _374  and  _375
REMARK  162  A    between atoms: _378  and  _380
REMARK  163  A    between atoms: _380  and  _381
REMARK  164  A    between atoms: _380  and  _383
REMARK  165  A    between atoms: _383  and  _384
REMARK  166  A    between atoms: _384  and  _385
REMARK  167  A    between atoms: _385  and  _386
REMARK  168  A    between atoms: _386  and  _387
REMARK  169  A    between atoms: _391  and  _393
REMARK  170  A    between atoms: _393  and  _394
REMARK  171  A    between atoms: _393  and  _396
REMARK  172  A    between atoms: _398  and  _400
REMARK  173  A    between atoms: _400  and  _401
REMARK  174  A    between atoms: _400  and  _403
REMARK  175  A    between atoms: _403  and  _404
REMARK  176  A    between atoms: _407  and  _409
REMARK  177  A    between atoms: _409  and  _410
REMARK  178  A    between atoms: _409  and  _412
REMARK  179  A    between atoms: _412  and  _413
REMARK  180  A    between atoms: _418  and  _420
REMARK  181  A    between atoms: _420  and  _421
REMARK  182  A    between atoms: _420  and  _423
REMARK  183  A    between atoms: _423  and  _424
REMARK  184  A    between atoms: _424  and  _425
REMARK  185  A    between atoms: _425  and  _426
REMARK  186  A    between atoms: _435  and  _437
REMARK  187  A    between atoms: _437  and  _438
REMARK  188  A    between atoms: _437  and  _440
REMARK  189  A    between atoms: _440  and  _441
REMARK  190  A    between atoms: _444  and  _446
REMARK  191  A    between atoms: _446  and  _447
REMARK  192  A    between atoms: _446  and  _449
REMARK  193  A    between atoms: _449  and  _450
REMARK  194  A    between atoms: _455  and  _457
REMARK  195  A    between atoms: _457  and  _458
REMARK  196  A    between atoms: _457  and  _460
REMARK  197  A    between atoms: _460  and  _461
REMARK  198  A    between atoms: _464  and  _466
REMARK  199  A    between atoms: _466  and  _467
REMARK  200  A    between atoms: _466  and  _469
REMARK  201  A    between atoms: _469  and  _470
REMARK  202  A    between atoms: _473  and  _475
REMARK  203  A    between atoms: _475  and  _476
REMARK  204  A    between atoms: _475  and  _478
REMARK  205  A    between atoms: _478  and  _479
REMARK  206  A    between atoms: _481  and  _483
REMARK  207  A    between atoms: _483  and  _484
REMARK  208  A    between atoms: _483  and  _486
REMARK  209  A    between atoms: _486  and  _487
REMARK  210  A    between atoms: _487  and  _488
REMARK  211  A    between atoms: _488  and  _489
REMARK  212  A    between atoms: _489  and  _490
REMARK  213  A    between atoms: _494  and  _496
REMARK  214  A    between atoms: _496  and  _497
REMARK  215  A    between atoms: _496  and  _499
REMARK  216  A    between atoms: _499  and  _500
REMARK  217  A    between atoms: _503  and  _505
REMARK  218  A    between atoms: _505  and  _506
REMARK  219  A    between atoms: _505  and  _508
REMARK  220  A    between atoms: _510  and  _512
REMARK  221  A    between atoms: _512  and  _513
REMARK  222  A    between atoms: _512  and  _515
REMARK  223  A    between atoms: _515  and  _516
REMARK  224  A    between atoms: _519  and  _521
REMARK  225  A    between atoms: _521  and  _522
REMARK  226  A    between atoms: _521  and  _524
REMARK  227  A    between atoms: _524  and  _525
REMARK  228  A    between atoms: _531  and  _533
REMARK  229  A    between atoms: _533  and  _534
REMARK  230  A    between atoms: _536  and  _538
REMARK  231  A    between atoms: _538  and  _539
REMARK  232  A    between atoms: _538  and  _541
REMARK  233  A    between atoms: _541  and  _542
REMARK                            x       y       z     vdW  Elec       q    Type
REMARK                         _______ _______ _______ _____ _____    ______ ____
ROOT
ATOM      1  O   HOH     1      44.882  48.264   9.688  0.00  0.00    +0.000 OA
ENDROOT
TORSDOF 0
REMARK  Name = ../refined-set-2016/2qu6/2qu6_pocket.pdb
REMARK  233 active torsions:
REMARK  status: ('A' for Active; 'I' for Inactive)
REMARK    1  A    between atoms: _1  and  _3
REMARK    2  A    between atoms: _3  and  _4
REMARK    3  A    between atoms: _3  and  _6
REMARK    4  A    between atoms: _6  and  _7
REMARK    5  A    between atoms: _7  and  _8
REMARK    6  A    between atoms: _8  and  _9
REMARK    7  A    between atoms: _9  and  _10
REMARK    8  A    between atoms: _15  and  _16
REMARK    9  A    between atoms: _21  and  _23
REMARK   10  A    between atoms: _23  and  _24
REMARK   11  A    between atoms: _23  and  _26
REMARK   12  A    between atoms: _26  and  _27
REMARK   13  A    between atoms: _30  and  _32
REMARK   14  A    between atoms: _32  and  _33
REMARK   15  A    between atoms: _32  and  _35
REMARK   16  A    between atoms: _35  and  _36
REMARK   17  A    between atoms: _36  and  _37
REMARK   18  A    between atoms: _42  and  _44
REMARK   19  A    between atoms: _44  and  _45
REMARK   20  A    between atoms: _44  and  _47
REMARK   21  A    between atoms: _50  and  _52
REMARK   22  A    between atoms: _52  and  _53
REMARK   23  A    between atoms: _52  and  _55
REMARK   24  A    between atoms: _55  and  _56
REMARK   25  A    between atoms: _59  and  _61
REMARK   26  A    between atoms: _61  and  _62
REMARK   27  A    between atoms: _61  and  _64
REMARK   28  A    between atoms: _64  and  _65
REMARK   29  A    between atoms: _65  and  _66
REMARK   30  A    between atoms: _69  and  _71
REMARK   31  A    between atoms: _71  and  _72
REMARK   32  A    between atoms: _71  and  _74
REMARK   33  A    between atoms: _74  and  _75
REMARK   34  A    between atoms: _78  and  _80
REMARK   35  A    between atoms: _80  and  _81
REMARK   36  A    between atoms: _80  and  _83
REMARK   37  A    between atoms: _86  and  _88
REMARK   38  A    between atoms: _88  and  _89
REMARK   39  A    between atoms: _92  and  _94
REMARK   40  A    between atoms: _94  and  _95
REMARK   41  A    between atoms: _94  and  _97
REMARK   42  A    between atoms: _100  and  _102
REMARK   43  A    between atoms: _102  and  _103
REMARK   44  A    between atoms: _102  and  _105
REMARK   45  A    between atoms: _105  and  _106
REMARK   46  A    between atoms: _106  and  _107
REMARK   47  A    between atoms: _107  and  _108
REMARK   48  A    between atoms: _108  and  _109
REMARK   49  A    between atoms: _113  and  _115
REMARK   50  A    between atoms: _115  and  _116
REMARK   51  A    between atoms: _115  and  _118
REMARK   52  A    between atoms: _118  and  _119
REMARK   53  A    between atoms: _119  and  _120
REMARK   54  A    between atoms: _122  and  _124
REMARK   55  A    between atoms: _124  and  _125
REMARK   56  A    between atoms: _128  and  _130
REMARK   57  A    between atoms: _130  and  _131
REMARK   58  A    between atoms: _130  and  _133
REMARK   59  A    between atoms: _133  and  _134
REMARK   60  A    between atoms: _137  and  _139
REMARK   61  A    between atoms: _139  and  _140
REMARK   62  A    between atoms: _139  and  _142
REMARK   63  A    between atoms: _142  and  _143
REMARK   64  A    between atoms: _145  and  _147
REMARK   65  A    between atoms: _147  and  _148
REMARK   66  A    between atoms: _147  and  _150
REMARK   67  A    between atoms: _150  and  _151
REMARK   68  A    between atoms: _151  and  _152
REMARK   69  A    between atoms: _155  and  _157
REMARK   70  A    between atoms: _157  and  _158
REMARK   71  A    between atoms: _157  and  _160
REMARK   72  A    between atoms: _160  and  _161
REMARK   73  A    between atoms: _164  and  _166
REMARK   74  A    between atoms: _166  and  _167
REMARK   75  A    between atoms: _166  and  _169
REMARK   76  A    between atoms: _169  and  _170
REMARK   77  A    between atoms: _173  and  _175
REMARK   78  A    between atoms: _175  and  _176
REMARK   79  A    between atoms: _175  and  _178
REMARK   80  A    between atoms: _178  and  _179
REMARK   81  A    between atoms: _182  and  _184
REMARK   82  A    between atoms: _184  and  _185
REMARK   83  A    between atoms: _184  and  _187
REMARK   84  A    between atoms: _187  and  _188
REMARK   85  A    between atoms: _191  and  _193
REMARK   86  A    between atoms: _193  and  _194
REMARK   87  A    between atoms: _193  and  _196
REMARK   88  A    between atoms: _196  and  _197
REMARK   89  A    between atoms: _202  and  _204
REMARK   90  A    between atoms: _204  and  _205
REMARK   91  A    between atoms: _204  and  _207
REMARK   92  A    between atoms: _210  and  _212
REMARK   93  A    between atoms: _212  and  _213
REMARK   94  A    between atoms: _212  and  _215
REMARK   95  A    between atoms: _218  and  _220
REMARK   96  A    between atoms: _220  and  _221
REMARK   97  A    between atoms: _220  and  _223
REMARK   98  A    between atoms: _223  and  _224
REMARK   99  A    between atoms: _229  and  _231
REMARK  100  A    between atoms: _231  and  _232
REMARK  101  A    between atoms: _231  and  _234
REMARK  102  A    between atoms: _234  and  _235
REMARK  103  A    between atoms: _238  and  _240
REMARK  104  A    between atoms: _240  and  _241
REMARK  105  A    between atoms: _240  and  _243
REMARK  106  A    between atoms: _243  and  _244
REMARK  107  A    between atoms: _247  and  _249
REMARK  108  A    between atoms: _249  and  _250
REMARK  109  A    between atoms: _249  and  _252
REMARK  110  A    between atoms: _255  and  _257
REMARK  111  A    between atoms: _257  and  _258
REMARK  112  A    between atoms: _257  and  _260
REMARK  113  A    between atoms: _260  and  _261
REMARK  114  A    between atoms: _264  and  _266
REMARK  115  A    between atoms: _266  and  _267
REMARK  116  A    between atoms: _266  and  _269
REMARK  117  A    between atoms: _269  and  _270
REMARK  118  A    between atoms: _273  and  _275
REMARK  119  A    between atoms: _275  and  _276
REMARK  120  A    between atoms: _275  and  _278
REMARK  121  A    between atoms: _278  and  _279
REMARK  122  A    between atoms: _279  and  _280
REMARK  123  A    between atoms: _283  and  _285
REMARK  124  A    between atoms: _285  and  _286
REMARK  125  A    between atoms: _285  and  _288
REMARK  126  A    between atoms: _288  and  _289
REMARK  127  A    between atoms: _295  and  _297
REMARK  128  A    between atoms: _297  and  _298
REMARK  129  A    between atoms: _297  and  _300
REMARK  130  A    between atoms: _302  and  _304
REMARK  131  A    between atoms: _304  and  _305
REMARK  132  A    between atoms: _304  and  _307
REMARK  133  A    between atoms: _307  and  _308
REMARK  134  A    between atoms: _308  and  _309
REMARK  135  A    between atoms: _309  and  _310
REMARK  136  A    between atoms: _310  and  _311
REMARK  137  A    between atoms: _315  and  _317
REMARK  138  A    between atoms: _317  and  _318
REMARK  139  A    between atoms: _317  and  _320
REMARK  140  A    between atoms: _320  and  _321
REMARK  141  A    between atoms: _327  and  _329
REMARK  142  A    between atoms: _329  and  _330
REMARK  143  A    between atoms: _332  and  _334
REMARK  144  A    between atoms: _334  and  _335
REMARK  145  A    between atoms: _334  and  _337
REMARK  146  A    between atoms: _337  and  _338
REMARK  147  A    between atoms: _343  and  _345
REMARK  148  A    between atoms: _345  and  _346
REMARK  149  A    between atoms: _348  and  _350
REMARK  150  A    between atoms: _350  and  _351
REMARK  151  A    between atoms: _350  and  _353
REMARK  152  A    between atoms: _353  and  _354
REMARK  153  A    between atoms: _354  and  _355
REMARK  154  A    between atoms: _357  and  _359
REMARK  155  A    between atoms: _359  and  _360
REMARK  156  A    between atoms: _359  and  _362
REMARK  157  A    between atoms: _362  and  _363
REMARK  158  A    between atoms: _369  and  _371
REMARK  159  A    between atoms: _371  and  _372
REMARK  160  A    between atoms: _371  and  _374
REMARK  161  A    between atoms: _374  and  _375
REMARK  162  A    between atoms: _378  and  _380
REMARK  163  A    between atoms: _380  and  _381
REMARK  164  A    between atoms: _380  and  _383
REMARK  165  A    between atoms: _383  and  _384
REMARK  166  A    between atoms: _384  and  _385
REMARK  167  A    between atoms: _385  and  _386
REMARK  168  A    between atoms: _386  and  _387
REMARK  169  A    between atoms: _391  and  _393
REMARK  170  A    between atoms: _393  and  _394
REMARK  171  A    between atoms: _393  and  _396
REMARK  172  A    between atoms: _398  and  _400
REMARK  173  A    between atoms: _400  and  _401
REMARK  174  A    between atoms: _400  and  _403
REMARK  175  A    between atoms: _403  and  _404
REMARK  176  A    between atoms: _407  and  _409
REMARK  177  A    between atoms: _409  and  _410
REMARK  178  A    between atoms: _409  and  _412
REMARK  179  A    between atoms: _412  and  _413
REMARK  180  A    between atoms: _418  and  _420
REMARK  181  A    between atoms: _420  and  _421
REMARK  182  A    between atoms: _420  and  _423
REMARK  183  A    between atoms: _423  and  _424
REMARK  184  A    between atoms: _424  and  _425
REMARK  185  A    between atoms: _425  and  _426
REMARK  186  A    between atoms: _435  and  _437
REMARK  187  A    between atoms: _437  and  _438
REMARK  188  A    between atoms: _437  and  _440
REMARK  189  A    between atoms: _440  and  _441
REMARK  190  A    between atoms: _444  and  _446
REMARK  191  A    between atoms: _446  and  _447
REMARK  192  A    between atoms: _446  and  _449
REMARK  193  A    between atoms: _449  and  _450
REMARK  194  A    between atoms: _455  and  _457
REMARK  195  A    between atoms: _457  and  _458
REMARK  196  A    between atoms: _457  and  _460
REMARK  197  A    between atoms: _460  and  _461
REMARK  198  A    between atoms: _464  and  _466
REMARK  199  A    between atoms: _466  and  _467
REMARK  200  A    between atoms: _466  and  _469
REMARK  201  A    between atoms: _469  and  _470
REMARK  202  A    between atoms: _473  and  _475
REMARK  203  A    between atoms: _475  and  _476
REMARK  204  A    between atoms: _475  and  _478
REMARK  205  A    between atoms: _478  and  _479
REMARK  206  A    between atoms: _481  and  _483
REMARK  207  A    between atoms: _483  and  _484
REMARK  208  A    between atoms: _483  and  _486
REMARK  209  A    between atoms: _486  and  _487
REMARK  210  A    between atoms: _487  and  _488
REMARK  211  A    between atoms: _488  and  _489
REMARK  212  A    between atoms: _489  and  _490
REMARK  213  A    between atoms: _494  and  _496
REMARK  214  A    between atoms: _496  and  _497
REMARK  215  A    between atoms: _496  and  _499
REMARK  216  A    between atoms: _499  and  _500
REMARK  217  A    between atoms: _503  and  _505
REMARK  218  A    between atoms: _505  and  _506
REMARK  219  A    between atoms: _505  and  _508
REMARK  220  A    between atoms: _510  and  _512
REMARK  221  A    between atoms: _512  and  _513
REMARK  222  A    between atoms: _512  and  _515
REMARK  223  A    between atoms: _515  and  _516
REMARK  224  A    between atoms: _519  and  _521
REMARK  225  A    between atoms: _521  and  _522
REMARK  226  A    between atoms: _521  and  _524
REMARK  227  A    between atoms: _524  and  _525
REMARK  228  A    between atoms: _531  and  _533
REMARK  229  A    between atoms: _533  and  _534
REMARK  230  A    between atoms: _536  and  _538
REMARK  231  A    between atoms: _538  and  _539
REMARK  232  A    between atoms: _538  and  _541
REMARK  233  A    between atoms: _541  and  _542
REMARK                            x       y       z     vdW  Elec       q    Type
REMARK                         _______ _______ _______ _____ _____    ______ ____
ROOT
ATOM      1  O   HOH     1      39.818  42.434  14.439  0.00  0.00    +0.000 OA
ENDROOT
TORSDOF 0
REMARK  Name = ../refined-set-2016/2qu6/2qu6_pocket.pdb
REMARK  233 active torsions:
REMARK  status: ('A' for Active; 'I' for Inactive)
REMARK    1  A    between atoms: _1  and  _3
REMARK    2  A    between atoms: _3  and  _4
REMARK    3  A    between atoms: _3  and  _6
REMARK    4  A    between atoms: _6  and  _7
REMARK    5  A    between atoms: _7  and  _8
REMARK    6  A    between atoms: _8  and  _9
REMARK    7  A    between atoms: _9  and  _10
REMARK    8  A    between atoms: _15  and  _16
REMARK    9  A    between atoms: _21  and  _23
REMARK   10  A    between atoms: _23  and  _24
REMARK   11  A    between atoms: _23  and  _26
REMARK   12  A    between atoms: _26  and  _27
REMARK   13  A    between atoms: _30  and  _32
REMARK   14  A    between atoms: _32  and  _33
REMARK   15  A    between atoms: _32  and  _35
REMARK   16  A    between atoms: _35  and  _36
REMARK   17  A    between atoms: _36  and  _37
REMARK   18  A    between atoms: _42  and  _44
REMARK   19  A    between atoms: _44  and  _45
REMARK   20  A    between atoms: _44  and  _47
REMARK   21  A    between atoms: _50  and  _52
REMARK   22  A    between atoms: _52  and  _53
REMARK   23  A    between atoms: _52  and  _55
REMARK   24  A    between atoms: _55  and  _56
REMARK   25  A    between atoms: _59  and  _61
REMARK   26  A    between atoms: _61  and  _62
REMARK   27  A    between atoms: _61  and  _64
REMARK   28  A    between atoms: _64  and  _65
REMARK   29  A    between atoms: _65  and  _66
REMARK   30  A    between atoms: _69  and  _71
REMARK   31  A    between atoms: _71  and  _72
REMARK   32  A    between atoms: _71  and  _74
REMARK   33  A    between atoms: _74  and  _75
REMARK   34  A    between atoms: _78  and  _80
REMARK   35  A    between atoms: _80  and  _81
REMARK   36  A    between atoms: _80  and  _83
REMARK   37  A    between atoms: _86  and  _88
REMARK   38  A    between atoms: _88  and  _89
REMARK   39  A    between atoms: _92  and  _94
REMARK   40  A    between atoms: _94  and  _95
REMARK   41  A    between atoms: _94  and  _97
REMARK   42  A    between atoms: _100  and  _102
REMARK   43  A    between atoms: _102  and  _103
REMARK   44  A    between atoms: _102  and  _105
REMARK   45  A    between atoms: _105  and  _106
REMARK   46  A    between atoms: _106  and  _107
REMARK   47  A    between atoms: _107  and  _108
REMARK   48  A    between atoms: _108  and  _109
REMARK   49  A    between atoms: _113  and  _115
REMARK   50  A    between atoms: _115  and  _116
REMARK   51  A    between atoms: _115  and  _118
REMARK   52  A    between atoms: _118  and  _119
REMARK   53  A    between atoms: _119  and  _120
REMARK   54  A    between atoms: _122  and  _124
REMARK   55  A    between atoms: _124  and  _125
REMARK   56  A    between atoms: _128  and  _130
REMARK   57  A    between atoms: _130  and  _131
REMARK   58  A    between atoms: _130  and  _133
REMARK   59  A    between atoms: _133  and  _134
REMARK   60  A    between atoms: _137  and  _139
REMARK   61  A    between atoms: _139  and  _140
REMARK   62  A    between atoms: _139  and  _142
REMARK   63  A    between atoms: _142  and  _143
REMARK   64  A    between atoms: _145  and  _147
REMARK   65  A    between atoms: _147  and  _148
REMARK   66  A    between atoms: _147  and  _150
REMARK   67  A    between atoms: _150  and  _151
REMARK   68  A    between atoms: _151  and  _152
REMARK   69  A    between atoms: _155  and  _157
REMARK   70  A    between atoms: _157  and  _158
REMARK   71  A    between atoms: _157  and  _160
REMARK   72  A    between atoms: _160  and  _161
REMARK   73  A    between atoms: _164  and  _166
REMARK   74  A    between atoms: _166  and  _167
REMARK   75  A    between atoms: _166  and  _169
REMARK   76  A    between atoms: _169  and  _170
REMARK   77  A    between atoms: _173  and  _175
REMARK   78  A    between atoms: _175  and  _176
REMARK   79  A    between atoms: _175  and  _178
REMARK   80  A    between atoms: _178  and  _179
REMARK   81  A    between atoms: _182  and  _184
REMARK   82  A    between atoms: _184  and  _185
REMARK   83  A    between atoms: _184  and  _187
REMARK   84  A    between atoms: _187  and  _188
REMARK   85  A    between atoms: _191  and  _193
REMARK   86  A    between atoms: _193  and  _194
REMARK   87  A    between atoms: _193  and  _196
REMARK   88  A    between atoms: _196  and  _197
REMARK   89  A    between atoms: _202  and  _204
REMARK   90  A    between atoms: _204  and  _205
REMARK   91  A    between atoms: _204  and  _207
REMARK   92  A    between atoms: _210  and  _212
REMARK   93  A    between atoms: _212  and  _213
REMARK   94  A    between atoms: _212  and  _215
REMARK   95  A    between atoms: _218  and  _220
REMARK   96  A    between atoms: _220  and  _221
REMARK   97  A    between atoms: _220  and  _223
REMARK   98  A    between atoms: _223  and  _224
REMARK   99  A    between atoms: _229  and  _231
REMARK  100  A    between atoms: _231  and  _232
REMARK  101  A    between atoms: _231  and  _234
REMARK  102  A    between atoms: _234  and  _235
REMARK  103  A    between atoms: _238  and  _240
REMARK  104  A    between atoms: _240  and  _241
REMARK  105  A    between atoms: _240  and  _243
REMARK  106  A    between atoms: _243  and  _244
REMARK  107  A    between atoms: _247  and  _249
REMARK  108  A    between atoms: _249  and  _250
REMARK  109  A    between atoms: _249  and  _252
REMARK  110  A    between atoms: _255  and  _257
REMARK  111  A    between atoms: _257  and  _258
REMARK  112  A    between atoms: _257  and  _260
REMARK  113  A    between atoms: _260  and  _261
REMARK  114  A    between atoms: _264  and  _266
REMARK  115  A    between atoms: _266  and  _267
REMARK  116  A    between atoms: _266  and  _269
REMARK  117  A    between atoms: _269  and  _270
REMARK  118  A    between atoms: _273  and  _275
REMARK  119  A    between atoms: _275  and  _276
REMARK  120  A    between atoms: _275  and  _278
REMARK  121  A    between atoms: _278  and  _279
REMARK  122  A    between atoms: _279  and  _280
REMARK  123  A    between atoms: _283  and  _285
REMARK  124  A    between atoms: _285  and  _286
REMARK  125  A    between atoms: _285  and  _288
REMARK  126  A    between atoms: _288  and  _289
REMARK  127  A    between atoms: _295  and  _297
REMARK  128  A    between atoms: _297  and  _298
REMARK  129  A    between atoms: _297  and  _300
REMARK  130  A    between atoms: _302  and  _304
REMARK  131  A    between atoms: _304  and  _305
REMARK  132  A    between atoms: _304  and  _307
REMARK  133  A    between atoms: _307  and  _308
REMARK  134  A    between atoms: _308  and  _309
REMARK  135  A    between atoms: _309  and  _310
REMARK  136  A    between atoms: _310  and  _311
REMARK  137  A    between atoms: _315  and  _317
REMARK  138  A    between atoms: _317  and  _318
REMARK  139  A    between atoms: _317  and  _320
REMARK  140  A    between atoms: _320  and  _321
REMARK  141  A    between atoms: _327  and  _329
REMARK  142  A    between atoms: _329  and  _330
REMARK  143  A    between atoms: _332  and  _334
REMARK  144  A    between atoms: _334  and  _335
REMARK  145  A    between atoms: _334  and  _337
REMARK  146  A    between atoms: _337  and  _338
REMARK  147  A    between atoms: _343  and  _345
REMARK  148  A    between atoms: _345  and  _346
REMARK  149  A    between atoms: _348  and  _350
REMARK  150  A    between atoms: _350  and  _351
REMARK  151  A    between atoms: _350  and  _353
REMARK  152  A    between atoms: _353  and  _354
REMARK  153  A    between atoms: _354  and  _355
REMARK  154  A    between atoms: _357  and  _359
REMARK  155  A    between atoms: _359  and  _360
REMARK  156  A    between atoms: _359  and  _362
REMARK  157  A    between atoms: _362  and  _363
REMARK  158  A    between atoms: _369  and  _371
REMARK  159  A    between atoms: _371  and  _372
REMARK  160  A    between atoms: _371  and  _374
REMARK  161  A    between atoms: _374  and  _375
REMARK  162  A    between atoms: _378  and  _380
REMARK  163  A    between atoms: _380  and  _381
REMARK  164  A    between atoms: _380  and  _383
REMARK  165  A    between atoms: _383  and  _384
REMARK  166  A    between atoms: _384  and  _385
REMARK  167  A    between atoms: _385  and  _386
REMARK  168  A    between atoms: _386  and  _387
REMARK  169  A    between atoms: _391  and  _393
REMARK  170  A    between atoms: _393  and  _394
REMARK  171  A    between atoms: _393  and  _396
REMARK  172  A    between atoms: _398  and  _400
REMARK  173  A    between atoms: _400  and  _401
REMARK  174  A    between atoms: _400  and  _403
REMARK  175  A    between atoms: _403  and  _404
REMARK  176  A    between atoms: _407  and  _409
REMARK  177  A    between atoms: _409  and  _410
REMARK  178  A    between atoms: _409  and  _412
REMARK  179  A    between atoms: _412  and  _413
REMARK  180  A    between atoms: _418  and  _420
REMARK  181  A    between atoms: _420  and  _421
REMARK  182  A    between atoms: _420  and  _423
REMARK  183  A    between atoms: _423  and  _424
REMARK  184  A    between atoms: _424  and  _425
REMARK  185  A    between atoms: _425  and  _426
REMARK  186  A    between atoms: _435  and  _437
REMARK  187  A    between atoms: _437  and  _438
REMARK  188  A    between atoms: _437  and  _440
REMARK  189  A    between atoms: _440  and  _441
REMARK  190  A    between atoms: _444  and  _446
REMARK  191  A    between atoms: _446  and  _447
REMARK  192  A    between atoms: _446  and  _449
REMARK  193  A    between atoms: _449  and  _450
REMARK  194  A    between atoms: _455  and  _457
REMARK  195  A    between atoms: _457  and  _458
REMARK  196  A    between atoms: _457  and  _460
REMARK  197  A    between atoms: _460  and  _461
REMARK  198  A    between atoms: _464  and  _466
REMARK  199  A    between atoms: _466  and  _467
REMARK  200  A    between atoms: _466  and  _469
REMARK  201  A    between atoms: _469  and  _470
REMARK  202  A    between atoms: _473  and  _475
REMARK  203  A    between atoms: _475  and  _476
REMARK  204  A    between atoms: _475  and  _478
REMARK  205  A    between atoms: _478  and  _479
REMARK  206  A    between atoms: _481  and  _483
REMARK  207  A    between atoms: _483  and  _484
REMARK  208  A    between atoms: _483  and  _486
REMARK  209  A    between atoms: _486  and  _487
REMARK  210  A    between atoms: _487  and  _488
REMARK  211  A    between atoms: _488  and  _489
REMARK  212  A    between atoms: _489  and  _490
REMARK  213  A    between atoms: _494  and  _496
REMARK  214  A    between atoms: _496  and  _497
REMARK  215  A    between atoms: _496  and  _499
REMARK  216  A    between atoms: _499  and  _500
REMARK  217  A    between atoms: _503  and  _505
REMARK  218  A    between atoms: _505  and  _506
REMARK  219  A    between atoms: _505  and  _508
REMARK  220  A    between atoms: _510  and  _512
REMARK  221  A    between atoms: _512  and  _513
REMARK  222  A    between atoms: _512  and  _515
REMARK  223  A    between atoms: _515  and  _516
REMARK  224  A    between atoms: _519  and  _521
REMARK  225  A    between atoms: _521  and  _522
REMARK  226  A    between atoms: _521  and  _524
REMARK  227  A    between atoms: _524  and  _525
REMARK  228  A    between atoms: _531  and  _533
REMARK  229  A    between atoms: _533  and  _534
REMARK  230  A    between atoms: _536  and  _538
REMARK  231  A    between atoms: _538  and  _539
REMARK  232  A    between atoms: _538  and  _541
REMARK  233  A    between atoms: _541  and  _542
REMARK                            x       y       z     vdW  Elec       q    Type
REMARK                         _______ _______ _______ _____ _____    ______ ____
ROOT
ATOM      1  O   HOH     1      43.998  20.325  13.203  0.00  0.00    +0.000 OA
ENDROOT
TORSDOF 0
REMARK  Name = ../refined-set-2016/2qu6/2qu6_pocket.pdb
REMARK  233 active torsions:
REMARK  status: ('A' for Active; 'I' for Inactive)
REMARK    1  A    between atoms: _1  and  _3
REMARK    2  A    between atoms: _3  and  _4
REMARK    3  A    between atoms: _3  and  _6
REMARK    4  A    between atoms: _6  and  _7
REMARK    5  A    between atoms: _7  and  _8
REMARK    6  A    between atoms: _8  and  _9
REMARK    7  A    between atoms: _9  and  _10
REMARK    8  A    between atoms: _15  and  _16
REMARK    9  A    between atoms: _21  and  _23
REMARK   10  A    between atoms: _23  and  _24
REMARK   11  A    between atoms: _23  and  _26
REMARK   12  A    between atoms: _26  and  _27
REMARK   13  A    between atoms: _30  and  _32
REMARK   14  A    between atoms: _32  and  _33
REMARK   15  A    between atoms: _32  and  _35
REMARK   16  A    between atoms: _35  and  _36
REMARK   17  A    between atoms: _36  and  _37
REMARK   18  A    between atoms: _42  and  _44
REMARK   19  A    between atoms: _44  and  _45
REMARK   20  A    between atoms: _44  and  _47
REMARK   21  A    between atoms: _50  and  _52
REMARK   22  A    between atoms: _52  and  _53
REMARK   23  A    between atoms: _52  and  _55
REMARK   24  A    between atoms: _55  and  _56
REMARK   25  A    between atoms: _59  and  _61
REMARK   26  A    between atoms: _61  and  _62
REMARK   27  A    between atoms: _61  and  _64
REMARK   28  A    between atoms: _64  and  _65
REMARK   29  A    between atoms: _65  and  _66
REMARK   30  A    between atoms: _69  and  _71
REMARK   31  A    between atoms: _71  and  _72
REMARK   32  A    between atoms: _71  and  _74
REMARK   33  A    between atoms: _74  and  _75
REMARK   34  A    between atoms: _78  and  _80
REMARK   35  A    between atoms: _80  and  _81
REMARK   36  A    between atoms: _80  and  _83
REMARK   37  A    between atoms: _86  and  _88
REMARK   38  A    between atoms: _88  and  _89
REMARK   39  A    between atoms: _92  and  _94
REMARK   40  A    between atoms: _94  and  _95
REMARK   41  A    between atoms: _94  and  _97
REMARK   42  A    between atoms: _100  and  _102
REMARK   43  A    between atoms: _102  and  _103
REMARK   44  A    between atoms: _102  and  _105
REMARK   45  A    between atoms: _105  and  _106
REMARK   46  A    between atoms: _106  and  _107
REMARK   47  A    between atoms: _107  and  _108
REMARK   48  A    between atoms: _108  and  _109
REMARK   49  A    between atoms: _113  and  _115
REMARK   50  A    between atoms: _115  and  _116
REMARK   51  A    between atoms: _115  and  _118
REMARK   52  A    between atoms: _118  and  _119
REMARK   53  A    between atoms: _119  and  _120
REMARK   54  A    between atoms: _122  and  _124
REMARK   55  A    between atoms: _124  and  _125
REMARK   56  A    between atoms: _128  and  _130
REMARK   57  A    between atoms: _130  and  _131
REMARK   58  A    between atoms: _130  and  _133
REMARK   59  A    between atoms: _133  and  _134
REMARK   60  A    between atoms: _137  and  _139
REMARK   61  A    between atoms: _139  and  _140
REMARK   62  A    between atoms: _139  and  _142
REMARK   63  A    between atoms: _142  and  _143
REMARK   64  A    between atoms: _145  and  _147
REMARK   65  A    between atoms: _147  and  _148
REMARK   66  A    between atoms: _147  and  _150
REMARK   67  A    between atoms: _150  and  _151
REMARK   68  A    between atoms: _151  and  _152
REMARK   69  A    between atoms: _155  and  _157
REMARK   70  A    between atoms: _157  and  _158
REMARK   71  A    between atoms: _157  and  _160
REMARK   72  A    between atoms: _160  and  _161
REMARK   73  A    between atoms: _164  and  _166
REMARK   74  A    between atoms: _166  and  _167
REMARK   75  A    between atoms: _166  and  _169
REMARK   76  A    between atoms: _169  and  _170
REMARK   77  A    between atoms: _173  and  _175
REMARK   78  A    between atoms: _175  and  _176
REMARK   79  A    between atoms: _175  and  _178
REMARK   80  A    between atoms: _178  and  _179
REMARK   81  A    between atoms: _182  and  _184
REMARK   82  A    between atoms: _184  and  _185
REMARK   83  A    between atoms: _184  and  _187
REMARK   84  A    between atoms: _187  and  _188
REMARK   85  A    between atoms: _191  and  _193
REMARK   86  A    between atoms: _193  and  _194
REMARK   87  A    between atoms: _193  and  _196
REMARK   88  A    between atoms: _196  and  _197
REMARK   89  A    between atoms: _202  and  _204
REMARK   90  A    between atoms: _204  and  _205
REMARK   91  A    between atoms: _204  and  _207
REMARK   92  A    between atoms: _210  and  _212
REMARK   93  A    between atoms: _212  and  _213
REMARK   94  A    between atoms: _212  and  _215
REMARK   95  A    between atoms: _218  and  _220
REMARK   96  A    between atoms: _220  and  _221
REMARK   97  A    between atoms: _220  and  _223
REMARK   98  A    between atoms: _223  and  _224
REMARK   99  A    between atoms: _229  and  _231
REMARK  100  A    between atoms: _231  and  _232
REMARK  101  A    between atoms: _231  and  _234
REMARK  102  A    between atoms: _234  and  _235
REMARK  103  A    between atoms: _238  and  _240
REMARK  104  A    between atoms: _240  and  _241
REMARK  105  A    between atoms: _240  and  _243
REMARK  106  A    between atoms: _243  and  _244
REMARK  107  A    between atoms: _247  and  _249
REMARK  108  A    between atoms: _249  and  _250
REMARK  109  A    between atoms: _249  and  _252
REMARK  110  A    between atoms: _255  and  _257
REMARK  111  A    between atoms: _257  and  _258
REMARK  112  A    between atoms: _257  and  _260
REMARK  113  A    between atoms: _260  and  _261
REMARK  114  A    between atoms: _264  and  _266
REMARK  115  A    between atoms: _266  and  _267
REMARK  116  A    between atoms: _266  and  _269
REMARK  117  A    between atoms: _269  and  _270
REMARK  118  A    between atoms: _273  and  _275
REMARK  119  A    between atoms: _275  and  _276
REMARK  120  A    between atoms: _275  and  _278
REMARK  121  A    between atoms: _278  and  _279
REMARK  122  A    between atoms: _279  and  _280
REMARK  123  A    between atoms: _283  and  _285
REMARK  124  A    between atoms: _285  and  _286
REMARK  125  A    between atoms: _285  and  _288
REMARK  126  A    between atoms: _288  and  _289
REMARK  127  A    between atoms: _295  and  _297
REMARK  128  A    between atoms: _297  and  _298
REMARK  129  A    between atoms: _297  and  _300
REMARK  130  A    between atoms: _302  and  _304
REMARK  131  A    between atoms: _304  and  _305
REMARK  132  A    between atoms: _304  and  _307
REMARK  133  A    between atoms: _307  and  _308
REMARK  134  A    between atoms: _308  and  _309
REMARK  135  A    between atoms: _309  and  _310
REMARK  136  A    between atoms: _310  and  _311
REMARK  137  A    between atoms: _315  and  _317
REMARK  138  A    between atoms: _317  and  _318
REMARK  139  A    between atoms: _317  and  _320
REMARK  140  A    between atoms: _320  and  _321
REMARK  141  A    between atoms: _327  and  _329
REMARK  142  A    between atoms: _329  and  _330
REMARK  143  A    between atoms: _332  and  _334
REMARK  144  A    between atoms: _334  and  _335
REMARK  145  A    between atoms: _334  and  _337
REMARK  146  A    between atoms: _337  and  _338
REMARK  147  A    between atoms: _343  and  _345
REMARK  148  A    between atoms: _345  and  _346
REMARK  149  A    between atoms: _348  and  _350
REMARK  150  A    between atoms: _350  and  _351
REMARK  151  A    between atoms: _350  and  _353
REMARK  152  A    between atoms: _353  and  _354
REMARK  153  A    between atoms: _354  and  _355
REMARK  154  A    between atoms: _357  and  _359
REMARK  155  A    between atoms: _359  and  _360
REMARK  156  A    between atoms: _359  and  _362
REMARK  157  A    between atoms: _362  and  _363
REMARK  158  A    between atoms: _369  and  _371
REMARK  159  A    between atoms: _371  and  _372
REMARK  160  A    between atoms: _371  and  _374
REMARK  161  A    between atoms: _374  and  _375
REMARK  162  A    between atoms: _378  and  _380
REMARK  163  A    between atoms: _380  and  _381
REMARK  164  A    between atoms: _380  and  _383
REMARK  165  A    between atoms: _383  and  _384
REMARK  166  A    between atoms: _384  and  _385
REMARK  167  A    between atoms: _385  and  _386
REMARK  168  A    between atoms: _386  and  _387
REMARK  169  A    between atoms: _391  and  _393
REMARK  170  A    between atoms: _393  and  _394
REMARK  171  A    between atoms: _393  and  _396
REMARK  172  A    between atoms: _398  and  _400
REMARK  173  A    between atoms: _400  and  _401
REMARK  174  A    between atoms: _400  and  _403
REMARK  175  A    between atoms: _403  and  _404
REMARK  176  A    between atoms: _407  and  _409
REMARK  177  A    between atoms: _409  and  _410
REMARK  178  A    between atoms: _409  and  _412
REMARK  179  A    between atoms: _412  and  _413
REMARK  180  A    between atoms: _418  and  _420
REMARK  181  A    between atoms: _420  and  _421
REMARK  182  A    between atoms: _420  and  _423
REMARK  183  A    between atoms: _423  and  _424
REMARK  184  A    between atoms: _424  and  _425
REMARK  185  A    between atoms: _425  and  _426
REMARK  186  A    between atoms: _435  and  _437
REMARK  187  A    between atoms: _437  and  _438
REMARK  188  A    between atoms: _437  and  _440
REMARK  189  A    between atoms: _440  and  _441
REMARK  190  A    between atoms: _444  and  _446
REMARK  191  A    between atoms: _446  and  _447
REMARK  192  A    between atoms: _446  and  _449
REMARK  193  A    between atoms: _449  and  _450
REMARK  194  A    between atoms: _455  and  _457
REMARK  195  A    between atoms: _457  and  _458
REMARK  196  A    between atoms: _457  and  _460
REMARK  197  A    between atoms: _460  and  _461
REMARK  198  A    between atoms: _464  and  _466
REMARK  199  A    between atoms: _466  and  _467
REMARK  200  A    between atoms: _466  and  _469
REMARK  201  A    between atoms: _469  and  _470
REMARK  202  A    between atoms: _473  and  _475
REMARK  203  A    between atoms: _475  and  _476
REMARK  204  A    between atoms: _475  and  _478
REMARK  205  A    between atoms: _478  and  _479
REMARK  206  A    between atoms: _481  and  _483
REMARK  207  A    between atoms: _483  and  _484
REMARK  208  A    between atoms: _483  and  _486
REMARK  209  A    between atoms: _486  and  _487
REMARK  210  A    between atoms: _487  and  _488
REMARK  211  A    between atoms: _488  and  _489
REMARK  212  A    between atoms: _489  and  _490
REMARK  213  A    between atoms: _494  and  _496
REMARK  214  A    between atoms: _496  and  _497
REMARK  215  A    between atoms: _496  and  _499
REMARK  216  A    between atoms: _499  and  _500
REMARK  217  A    between atoms: _503  and  _505
REMARK  218  A    between atoms: _505  and  _506
REMARK  219  A    between atoms: _505  and  _508
REMARK  220  A    between atoms: _510  and  _512
REMARK  221  A    between atoms: _512  and  _513
REMARK  222  A    between atoms: _512  and  _515
REMARK  223  A    between atoms: _515  and  _516
REMARK  224  A    between atoms: _519  and  _521
REMARK  225  A    between atoms: _521  and  _522
REMARK  226  A    between atoms: _521  and  _524
REMARK  227  A    between atoms: _524  and  _525
REMARK  228  A    between atoms: _531  and  _533
REMARK  229  A    between atoms: _533  and  _534
REMARK  230  A    between atoms: _536  and  _538
REMARK  231  A    between atoms: _538  and  _539
REMARK  232  A    between atoms: _538  and  _541
REMARK  233  A    between atoms: _541  and  _542
REMARK                            x       y       z     vdW  Elec       q    Type
REMARK                         _______ _______ _______ _____ _____    ______ ____
ROOT
ATOM      1  O   HOH     1      50.152  22.722  14.575  0.00  0.00    +0.000 OA
ENDROOT
TORSDOF 0
