REMARK  Name = ../refined-set-2016/1ai7/1ai7_pocket.pdb
REMARK  121 active torsions:
REMARK  status: ('A' for Active; 'I' for Inactive)
REMARK    1  A    between atoms: _1  and  _3
REMARK    2  A    between atoms: _3  and  _4
REMARK    3  A    between atoms: _3  and  _6
REMARK    4  A    between atoms: _6  and  _7
REMARK    5  A    between atoms: _10  and  _12
REMARK    6  A    between atoms: _12  and  _13
REMARK    7  A    between atoms: _12  and  _15
REMARK    8  A    between atoms: _15  and  _16
REMARK    9  A    between atoms: _16  and  _17
REMARK   10  A    between atoms: _19  and  _21
REMARK   11  A    between atoms: _21  and  _22
REMARK   12  A    between atoms: _21  and  _24
REMARK   13  A    between atoms: _24  and  _25
REMARK   14  A    between atoms: _25  and  _26
REMARK   15  A    between atoms: _26  and  _27
REMARK   16  A    between atoms: _36  and  _38
REMARK   17  A    between atoms: _38  and  _39
REMARK   18  A    between atoms: _38  and  _41
REMARK   19  A    between atoms: _41  and  _42
REMARK   20  A    between atoms: _48  and  _50
REMARK   21  A    between atoms: _50  and  _51
REMARK   22  A    between atoms: _50  and  _53
REMARK   23  A    between atoms: _53  and  _54
REMARK   24  A    between atoms: _56  and  _60
REMARK   25  A    between atoms: _60  and  _61
REMARK   26  A    between atoms: _60  and  _63
REMARK   27  A    between atoms: _63  and  _64
REMARK   28  A    between atoms: _66  and  _68
REMARK   29  A    between atoms: _68  and  _69
REMARK   30  A    between atoms: _68  and  _71
REMARK   31  A    between atoms: _71  and  _72
REMARK   32  A    between atoms: _77  and  _79
REMARK   33  A    between atoms: _79  and  _80
REMARK   34  A    between atoms: _79  and  _82
REMARK   35  A    between atoms: _82  and  _83
REMARK   36  A    between atoms: _88  and  _90
REMARK   37  A    between atoms: _90  and  _91
REMARK   38  A    between atoms: _94  and  _95
REMARK   39  A    between atoms: _100  and  _102
REMARK   40  A    between atoms: _102  and  _103
REMARK   41  A    between atoms: _102  and  _105
REMARK   42  A    between atoms: _105  and  _106
REMARK   43  A    between atoms: _106  and  _107
REMARK   44  A    between atoms: _112  and  _114
REMARK   45  A    between atoms: _114  and  _115
REMARK   46  A    between atoms: _114  and  _117
REMARK   47  A    between atoms: _117  and  _118
REMARK   48  A    between atoms: _124  and  _126
REMARK   49  A    between atoms: _126  and  _127
REMARK   50  A    between atoms: _126  and  _129
REMARK   51  A    between atoms: _129  and  _130
REMARK   52  A    between atoms: _135  and  _136
REMARK   53  A    between atoms: _139  and  _140
REMARK   54  A    between atoms: _145  and  _147
REMARK   55  A    between atoms: _147  and  _148
REMARK   56  A    between atoms: _147  and  _150
REMARK   57  A    between atoms: _150  and  _151
REMARK   58  A    between atoms: _156  and  _157
REMARK   59  A    between atoms: _159  and  _161
REMARK   60  A    between atoms: _161  and  _162
REMARK   61  A    between atoms: _161  and  _164
REMARK   62  A    between atoms: _167  and  _169
REMARK   63  A    between atoms: _169  and  _170
REMARK   64  A    between atoms: _169  and  _172
REMARK   65  A    between atoms: _172  and  _173
REMARK   66  A    between atoms: _179  and  _181
REMARK   67  A    between atoms: _181  and  _182
REMARK   68  A    between atoms: _184  and  _186
REMARK   69  A    between atoms: _186  and  _187
REMARK   70  A    between atoms: _186  and  _189
REMARK   71  A    between atoms: _189  and  _190
REMARK   72  A    between atoms: _192  and  _194
REMARK   73  A    between atoms: _194  and  _195
REMARK   74  A    between atoms: _194  and  _197
REMARK   75  A    between atoms: _197  and  _198
REMARK   76  A    between atoms: _201  and  _203
REMARK   77  A    between atoms: _203  and  _204
REMARK   78  A    between atoms: _207  and  _209
REMARK   79  A    between atoms: _209  and  _210
REMARK   80  A    between atoms: _212  and  _214
REMARK   81  A    between atoms: _214  and  _215
REMARK   82  A    between atoms: _214  and  _217
REMARK   83  A    between atoms: _217  and  _218
REMARK   84  A    between atoms: _224  and  _226
REMARK   85  A    between atoms: _226  and  _227
REMARK   86  A    between atoms: _226  and  _229
REMARK   87  A    between atoms: _229  and  _230
REMARK   88  A    between atoms: _240  and  _242
REMARK   89  A    between atoms: _242  and  _243
REMARK   90  A    between atoms: _242  and  _245
REMARK   91  A    between atoms: _245  and  _246
REMARK   92  A    between atoms: _246  and  _247
REMARK   93  A    between atoms: _252  and  _254
REMARK   94  A    between atoms: _254  and  _255
REMARK   95  A    between atoms: _254  and  _257
REMARK   96  A    between atoms: _257  and  _258
REMARK   97  A    between atoms: _261  and  _263
REMARK   98  A    between atoms: _263  and  _264
REMARK   99  A    between atoms: _263  and  _266
REMARK  100  A    between atoms: _266  and  _267
REMARK  101  A    between atoms: _270  and  _272
REMARK  102  A    between atoms: _272  and  _273
REMARK  103  A    between atoms: _272  and  _275
REMARK  104  A    between atoms: _275  and  _276
REMARK  105  A    between atoms: _281  and  _283
REMARK  106  A    between atoms: _283  and  _284
REMARK  107  A    between atoms: _283  and  _286
REMARK  108  A    between atoms: _286  and  _287
REMARK  109  A    between atoms: _297  and  _299
REMARK  110  A    between atoms: _299  and  _300
REMARK  111  A    between atoms: _299  and  _302
REMARK  112  A    between atoms: _302  and  _303
REMARK  113  A    between atoms: _308  and  _309
REMARK  114  A    between atoms: _311  and  _313
REMARK  115  A    between atoms: _313  and  _314
REMARK  116  A    between atoms: _313  and  _316
REMARK  117  A    between atoms: _316  and  _317
REMARK  118  A    between atoms: _322  and  _324
REMARK  119  A    between atoms: _324  and  _325
REMARK  120  A    between atoms: _324  and  _327
REMARK  121  A    between atoms: _327  and  _328
REMARK                            x       y       z     vdW  Elec       q    Type
REMARK                         _______ _______ _______ _____ _____    ______ ____
ROOT
ATOM      1  C   THR A   1      13.774  27.702  35.257  0.00  0.00    +0.241 C 
ATOM      2  N   MET A   2      12.479  27.381  35.364  0.00  0.00    -0.298 N 
ATOM      3  H   MET A   2      12.202  26.384  35.467  0.00  0.00    +0.150 HD
ATOM      4  O   THR A   1      14.056  28.871  35.015  0.00  0.00    -0.274 OA
ENDROOT
BRANCH   1   5
ATOM      5  CA  THR A   1      14.790  26.586  35.205  0.00  0.00    +0.172 C 
BRANCH   5   6
ATOM      6  N   THR A   1      14.138  25.344  35.645  0.00  0.00    -0.236 NA
ATOM      7  H   THR A   1      13.423  24.880  35.049  0.00  0.00    +0.142 HD
ENDBRANCH   5   6
BRANCH   5   8
ATOM      8  CB  THR A   1      15.318  26.393  33.760  0.00  0.00    +0.135 C 
ATOM      9  CG2 THR A   1      16.245  25.195  33.743  0.00  0.00    +0.034 C 
BRANCH   8  10
ATOM     10  OG1 THR A   1      14.187  26.226  32.816  0.00  0.00    -0.383 OA
ATOM     11  HG1 THR A   1      13.612  27.032  32.846  0.00  0.00    +0.210 HD
ENDBRANCH   8  10
ENDBRANCH   5   8
ENDBRANCH   1   5
BRANCH   2  12
ATOM     12  CA  MET A   2      11.451  28.419  35.338  0.00  0.00    +0.138 C 
BRANCH  12  13
ATOM     13  C   MET A   2      10.783  28.484  36.717  0.00  0.00    +0.227 C 
ATOM     14  O   MET A   2      10.804  29.492  37.414  0.00  0.00    -0.286 OA
ENDBRANCH  12  13
BRANCH  12  15
ATOM     15  CB  MET A   2      10.378  28.288  34.290  0.00  0.00    +0.039 C 
BRANCH  15  16
ATOM     16  CG  MET A   2       9.306  29.377  34.389  0.00  0.00    +0.060 C 
BRANCH  16  17
ATOM     17  SD  MET A   2       9.867  31.050  34.072  0.00  0.00    -0.139 S 
ATOM     18  CE  MET A   2      10.089  31.014  32.293  0.00  0.00    +0.069 C 
ENDBRANCH  16  17
ENDBRANCH  15  16
ENDBRANCH  12  15
ENDBRANCH   2  12
TORSDOF 9
REMARK  Name = ../refined-set-2016/1ai7/1ai7_pocket.pdb
REMARK  121 active torsions:
REMARK  status: ('A' for Active; 'I' for Inactive)
REMARK    1  A    between atoms: _1  and  _3
REMARK    2  A    between atoms: _3  and  _4
REMARK    3  A    between atoms: _3  and  _6
REMARK    4  A    between atoms: _6  and  _7
REMARK    5  A    between atoms: _10  and  _12
REMARK    6  A    between atoms: _12  and  _13
REMARK    7  A    between atoms: _12  and  _15
REMARK    8  A    between atoms: _15  and  _16
REMARK    9  A    between atoms: _16  and  _17
REMARK   10  A    between atoms: _19  and  _21
REMARK   11  A    between atoms: _21  and  _22
REMARK   12  A    between atoms: _21  and  _24
REMARK   13  A    between atoms: _24  and  _25
REMARK   14  A    between atoms: _25  and  _26
REMARK   15  A    between atoms: _26  and  _27
REMARK   16  A    between atoms: _36  and  _38
REMARK   17  A    between atoms: _38  and  _39
REMARK   18  A    between atoms: _38  and  _41
REMARK   19  A    between atoms: _41  and  _42
REMARK   20  A    between atoms: _48  and  _50
REMARK   21  A    between atoms: _50  and  _51
REMARK   22  A    between atoms: _50  and  _53
REMARK   23  A    between atoms: _53  and  _54
REMARK   24  A    between atoms: _56  and  _60
REMARK   25  A    between atoms: _60  and  _61
REMARK   26  A    between atoms: _60  and  _63
REMARK   27  A    between atoms: _63  and  _64
REMARK   28  A    between atoms: _66  and  _68
REMARK   29  A    between atoms: _68  and  _69
REMARK   30  A    between atoms: _68  and  _71
REMARK   31  A    between atoms: _71  and  _72
REMARK   32  A    between atoms: _77  and  _79
REMARK   33  A    between atoms: _79  and  _80
REMARK   34  A    between atoms: _79  and  _82
REMARK   35  A    between atoms: _82  and  _83
REMARK   36  A    between atoms: _88  and  _90
REMARK   37  A    between atoms: _90  and  _91
REMARK   38  A    between atoms: _94  and  _95
REMARK   39  A    between atoms: _100  and  _102
REMARK   40  A    between atoms: _102  and  _103
REMARK   41  A    between atoms: _102  and  _105
REMARK   42  A    between atoms: _105  and  _106
REMARK   43  A    between atoms: _106  and  _107
REMARK   44  A    between atoms: _112  and  _114
REMARK   45  A    between atoms: _114  and  _115
REMARK   46  A    between atoms: _114  and  _117
REMARK   47  A    between atoms: _117  and  _118
REMARK   48  A    between atoms: _124  and  _126
REMARK   49  A    between atoms: _126  and  _127
REMARK   50  A    between atoms: _126  and  _129
REMARK   51  A    between atoms: _129  and  _130
REMARK   52  A    between atoms: _135  and  _136
REMARK   53  A    between atoms: _139  and  _140
REMARK   54  A    between atoms: _145  and  _147
REMARK   55  A    between atoms: _147  and  _148
REMARK   56  A    between atoms: _147  and  _150
REMARK   57  A    between atoms: _150  and  _151
REMARK   58  A    between atoms: _156  and  _157
REMARK   59  A    between atoms: _159  and  _161
REMARK   60  A    between atoms: _161  and  _162
REMARK   61  A    between atoms: _161  and  _164
REMARK   62  A    between atoms: _167  and  _169
REMARK   63  A    between atoms: _169  and  _170
REMARK   64  A    between atoms: _169  and  _172
REMARK   65  A    between atoms: _172  and  _173
REMARK   66  A    between atoms: _179  and  _181
REMARK   67  A    between atoms: _181  and  _182
REMARK   68  A    between atoms: _184  and  _186
REMARK   69  A    between atoms: _186  and  _187
REMARK   70  A    between atoms: _186  and  _189
REMARK   71  A    between atoms: _189  and  _190
REMARK   72  A    between atoms: _192  and  _194
REMARK   73  A    between atoms: _194  and  _195
REMARK   74  A    between atoms: _194  and  _197
REMARK   75  A    between atoms: _197  and  _198
REMARK   76  A    between atoms: _201  and  _203
REMARK   77  A    between atoms: _203  and  _204
REMARK   78  A    between atoms: _207  and  _209
REMARK   79  A    between atoms: _209  and  _210
REMARK   80  A    between atoms: _212  and  _214
REMARK   81  A    between atoms: _214  and  _215
REMARK   82  A    between atoms: _214  and  _217
REMARK   83  A    between atoms: _217  and  _218
REMARK   84  A    between atoms: _224  and  _226
REMARK   85  A    between atoms: _226  and  _227
REMARK   86  A    between atoms: _226  and  _229
REMARK   87  A    between atoms: _229  and  _230
REMARK   88  A    between atoms: _240  and  _242
REMARK   89  A    between atoms: _242  and  _243
REMARK   90  A    between atoms: _242  and  _245
REMARK   91  A    between atoms: _245  and  _246
REMARK   92  A    between atoms: _246  and  _247
REMARK   93  A    between atoms: _252  and  _254
REMARK   94  A    between atoms: _254  and  _255
REMARK   95  A    between atoms: _254  and  _257
REMARK   96  A    between atoms: _257  and  _258
REMARK   97  A    between atoms: _261  and  _263
REMARK   98  A    between atoms: _263  and  _264
REMARK   99  A    between atoms: _263  and  _266
REMARK  100  A    between atoms: _266  and  _267
REMARK  101  A    between atoms: _270  and  _272
REMARK  102  A    between atoms: _272  and  _273
REMARK  103  A    between atoms: _272  and  _275
REMARK  104  A    between atoms: _275  and  _276
REMARK  105  A    between atoms: _281  and  _283
REMARK  106  A    between atoms: _283  and  _284
REMARK  107  A    between atoms: _283  and  _286
REMARK  108  A    between atoms: _286  and  _287
REMARK  109  A    between atoms: _297  and  _299
REMARK  110  A    between atoms: _299  and  _300
REMARK  111  A    between atoms: _299  and  _302
REMARK  112  A    between atoms: _302  and  _303
REMARK  113  A    between atoms: _308  and  _309
REMARK  114  A    between atoms: _311  and  _313
REMARK  115  A    between atoms: _313  and  _314
REMARK  116  A    between atoms: _313  and  _316
REMARK  117  A    between atoms: _316  and  _317
REMARK  118  A    between atoms: _322  and  _324
REMARK  119  A    between atoms: _324  and  _325
REMARK  120  A    between atoms: _324  and  _327
REMARK  121  A    between atoms: _327  and  _328
REMARK                            x       y       z     vdW  Elec       q    Type
REMARK                         _______ _______ _______ _____ _____    ______ ____
ROOT
ATOM      1  C   ARG A   1      13.727  31.271  39.702  0.00  0.00    +0.238 C 
ATOM      2  O   ARG A   1      14.226  32.229  40.371  0.00  0.00    -0.274 OA
ATOM      3  N   PHE A   2      12.492  31.382  39.247  0.00  0.00    -0.297 N 
ATOM      4  H   PHE A   2      12.043  30.552  38.810  0.00  0.00    +0.150 HD
ENDROOT
BRANCH   1   5
ATOM      5  CA  ARG A   1      14.525  30.025  39.462  0.00  0.00    +0.145 C 
BRANCH   5   6
ATOM      6  N   ARG A   1      13.710  28.805  39.466  0.00  0.00    -0.238 NA
ATOM      7  H   ARG A   1      13.349  28.400  38.578  0.00  0.00    +0.142 HD
ENDBRANCH   5   6
BRANCH   5   8
ATOM      8  CB  ARG A   1      15.230  30.128  38.108  0.00  0.00    +0.030 C 
BRANCH   8   9
ATOM      9  CG  ARG A   1      16.125  31.380  38.041  0.00  0.00    +0.045 C 
BRANCH   9  10
ATOM     10  CD  ARG A   1      16.992  31.420  36.777  0.00  0.00    +0.174 C 
BRANCH  10  11
ATOM     11  NE  ARG A   1      18.072  32.402  36.921  0.00  0.00    -0.265 N 
ATOM     12  HE  ARG A   1      18.449  32.659  37.856  0.00  0.00    +0.259 HD
ATOM     13  CZ  ARG A   1      18.555  32.957  35.795  0.00  0.00    +0.342 C 
ATOM     14  NH2 ARG A   1      19.554  33.845  35.871  0.00  0.00    -0.292 N 
ATOM     15 HH21 ARG A   1      19.952  34.102  36.797  0.00  0.00    +0.255 HD
ATOM     16 HH22 ARG A   1      19.932  34.278  35.004  0.00  0.00    +0.255 HD
ATOM     17  NH1 ARG A   1      18.056  32.616  34.623  0.00  0.00    -0.292 N 
ATOM     18 HH11 ARG A   1      17.288  31.917  34.568  0.00  0.00    +0.255 HD
ATOM     19 HH12 ARG A   1      18.431  33.046  33.753  0.00  0.00    +0.255 HD
ENDBRANCH  10  11
ENDBRANCH   9  10
ENDBRANCH   8   9
ENDBRANCH   5   8
ENDBRANCH   1   5
BRANCH   3  20
ATOM     20  CA  PHE A   2      11.742  32.611  39.334  0.00  0.00    +0.153 C 
BRANCH  20  21
ATOM     21  C   PHE A   2      10.472  32.472  40.159  0.00  0.00    +0.241 C 
ATOM     22  N   SER A   3      10.123  31.346  40.778  0.00  0.00    -0.296 N 
ATOM     23  H   SER A   3      10.731  30.503  40.749  0.00  0.00    +0.150 HD
ATOM     24  O   PHE A   2       9.762  33.478  40.285  0.00  0.00    -0.273 OA
BRANCH  22  25
ATOM     25  CA  SER A   3       8.868  31.341  41.491  0.00  0.00    +0.166 C 
BRANCH  25  26
ATOM     26  CB  SER A   3       8.959  30.549  42.767  0.00  0.00    +0.229 C 
ATOM     27  OG  SER A   3       7.941  30.203  43.375  0.00  0.00    -0.286 OA
ENDBRANCH  25  26
BRANCH  25  28
ATOM     28  C   SER A   3       7.818  30.738  40.533  0.00  0.00    +0.165 C 
BRANCH  28  29
ATOM     29  O   SER A   3       6.528  30.938  41.033  0.00  0.00    -0.380 OA
ATOM     30  H   SER A   3       6.447  30.500  41.917  0.00  0.00    +0.211 HD
ENDBRANCH  28  29
ENDBRANCH  25  28
ENDBRANCH  22  25
ENDBRANCH  20  21
BRANCH  20  31
ATOM     31  CB  PHE A   2      11.417  33.173  37.940  0.00  0.00    +0.055 C 
BRANCH  31  32
ATOM     32  CG  PHE A   2      12.641  33.536  37.136  0.00  0.00    -0.020 A 
ATOM     33  CD2 PHE A   2      13.371  34.659  37.500  0.00  0.00    -0.004 A 
ATOM     34  CE2 PHE A   2      14.496  35.026  36.795  0.00  0.00    -0.000 A 
ATOM     35  CZ  PHE A   2      14.929  34.287  35.709  0.00  0.00    -0.000 A 
ATOM     36  CE1 PHE A   2      14.180  33.176  35.313  0.00  0.00    -0.000 A 
ATOM     37  CD1 PHE A   2      13.064  32.786  36.040  0.00  0.00    -0.004 A 
ENDBRANCH  31  32
ENDBRANCH  20  31
ENDBRANCH   3  20
TORSDOF 14
REMARK  Name = ../refined-set-2016/1ai7/1ai7_pocket.pdb
REMARK  121 active torsions:
REMARK  status: ('A' for Active; 'I' for Inactive)
REMARK    1  A    between atoms: _1  and  _3
REMARK    2  A    between atoms: _3  and  _4
REMARK    3  A    between atoms: _3  and  _6
REMARK    4  A    between atoms: _6  and  _7
REMARK    5  A    between atoms: _10  and  _12
REMARK    6  A    between atoms: _12  and  _13
REMARK    7  A    between atoms: _12  and  _15
REMARK    8  A    between atoms: _15  and  _16
REMARK    9  A    between atoms: _16  and  _17
REMARK   10  A    between atoms: _19  and  _21
REMARK   11  A    between atoms: _21  and  _22
REMARK   12  A    between atoms: _21  and  _24
REMARK   13  A    between atoms: _24  and  _25
REMARK   14  A    between atoms: _25  and  _26
REMARK   15  A    between atoms: _26  and  _27
REMARK   16  A    between atoms: _36  and  _38
REMARK   17  A    between atoms: _38  and  _39
REMARK   18  A    between atoms: _38  and  _41
REMARK   19  A    between atoms: _41  and  _42
REMARK   20  A    between atoms: _48  and  _50
REMARK   21  A    between atoms: _50  and  _51
REMARK   22  A    between atoms: _50  and  _53
REMARK   23  A    between atoms: _53  and  _54
REMARK   24  A    between atoms: _56  and  _60
REMARK   25  A    between atoms: _60  and  _61
REMARK   26  A    between atoms: _60  and  _63
REMARK   27  A    between atoms: _63  and  _64
REMARK   28  A    between atoms: _66  and  _68
REMARK   29  A    between atoms: _68  and  _69
REMARK   30  A    between atoms: _68  and  _71
REMARK   31  A    between atoms: _71  and  _72
REMARK   32  A    between atoms: _77  and  _79
REMARK   33  A    between atoms: _79  and  _80
REMARK   34  A    between atoms: _79  and  _82
REMARK   35  A    between atoms: _82  and  _83
REMARK   36  A    between atoms: _88  and  _90
REMARK   37  A    between atoms: _90  and  _91
REMARK   38  A    between atoms: _94  and  _95
REMARK   39  A    between atoms: _100  and  _102
REMARK   40  A    between atoms: _102  and  _103
REMARK   41  A    between atoms: _102  and  _105
REMARK   42  A    between atoms: _105  and  _106
REMARK   43  A    between atoms: _106  and  _107
REMARK   44  A    between atoms: _112  and  _114
REMARK   45  A    between atoms: _114  and  _115
REMARK   46  A    between atoms: _114  and  _117
REMARK   47  A    between atoms: _117  and  _118
REMARK   48  A    between atoms: _124  and  _126
REMARK   49  A    between atoms: _126  and  _127
REMARK   50  A    between atoms: _126  and  _129
REMARK   51  A    between atoms: _129  and  _130
REMARK   52  A    between atoms: _135  and  _136
REMARK   53  A    between atoms: _139  and  _140
REMARK   54  A    between atoms: _145  and  _147
REMARK   55  A    between atoms: _147  and  _148
REMARK   56  A    between atoms: _147  and  _150
REMARK   57  A    between atoms: _150  and  _151
REMARK   58  A    between atoms: _156  and  _157
REMARK   59  A    between atoms: _159  and  _161
REMARK   60  A    between atoms: _161  and  _162
REMARK   61  A    between atoms: _161  and  _164
REMARK   62  A    between atoms: _167  and  _169
REMARK   63  A    between atoms: _169  and  _170
REMARK   64  A    between atoms: _169  and  _172
REMARK   65  A    between atoms: _172  and  _173
REMARK   66  A    between atoms: _179  and  _181
REMARK   67  A    between atoms: _181  and  _182
REMARK   68  A    between atoms: _184  and  _186
REMARK   69  A    between atoms: _186  and  _187
REMARK   70  A    between atoms: _186  and  _189
REMARK   71  A    between atoms: _189  and  _190
REMARK   72  A    between atoms: _192  and  _194
REMARK   73  A    between atoms: _194  and  _195
REMARK   74  A    between atoms: _194  and  _197
REMARK   75  A    between atoms: _197  and  _198
REMARK   76  A    between atoms: _201  and  _203
REMARK   77  A    between atoms: _203  and  _204
REMARK   78  A    between atoms: _207  and  _209
REMARK   79  A    between atoms: _209  and  _210
REMARK   80  A    between atoms: _212  and  _214
REMARK   81  A    between atoms: _214  and  _215
REMARK   82  A    between atoms: _214  and  _217
REMARK   83  A    between atoms: _217  and  _218
REMARK   84  A    between atoms: _224  and  _226
REMARK   85  A    between atoms: _226  and  _227
REMARK   86  A    between atoms: _226  and  _229
REMARK   87  A    between atoms: _229  and  _230
REMARK   88  A    between atoms: _240  and  _242
REMARK   89  A    between atoms: _242  and  _243
REMARK   90  A    between atoms: _242  and  _245
REMARK   91  A    between atoms: _245  and  _246
REMARK   92  A    between atoms: _246  and  _247
REMARK   93  A    between atoms: _252  and  _254
REMARK   94  A    between atoms: _254  and  _255
REMARK   95  A    between atoms: _254  and  _257
REMARK   96  A    between atoms: _257  and  _258
REMARK   97  A    between atoms: _261  and  _263
REMARK   98  A    between atoms: _263  and  _264
REMARK   99  A    between atoms: _263  and  _266
REMARK  100  A    between atoms: _266  and  _267
REMARK  101  A    between atoms: _270  and  _272
REMARK  102  A    between atoms: _272  and  _273
REMARK  103  A    between atoms: _272  and  _275
REMARK  104  A    between atoms: _275  and  _276
REMARK  105  A    between atoms: _281  and  _283
REMARK  106  A    between atoms: _283  and  _284
REMARK  107  A    between atoms: _283  and  _286
REMARK  108  A    between atoms: _286  and  _287
REMARK  109  A    between atoms: _297  and  _299
REMARK  110  A    between atoms: _299  and  _300
REMARK  111  A    between atoms: _299  and  _302
REMARK  112  A    between atoms: _302  and  _303
REMARK  113  A    between atoms: _308  and  _309
REMARK  114  A    between atoms: _311  and  _313
REMARK  115  A    between atoms: _313  and  _314
REMARK  116  A    between atoms: _313  and  _316
REMARK  117  A    between atoms: _316  and  _317
REMARK  118  A    between atoms: _322  and  _324
REMARK  119  A    between atoms: _324  and  _325
REMARK  120  A    between atoms: _324  and  _327
REMARK  121  A    between atoms: _327  and  _328
REMARK                            x       y       z     vdW  Elec       q    Type
REMARK                         _______ _______ _______ _____ _____    ______ ____
ROOT
ATOM      1  C   SER A   1      12.378  43.072  32.823  0.00  0.00    +0.205 C 
ATOM      2  O   SER A   1      11.586  43.330  33.742  0.00  0.00    -0.277 OA
ATOM      3  N   ASN A   2      12.398  43.654  31.649  0.00  0.00    -0.301 N 
ATOM      4  H   ASN A   2      13.081  43.396  30.908  0.00  0.00    +0.150 HD
ENDROOT
BRANCH   1   5
ATOM      5  CA  SER A   1      13.293  41.899  33.063  0.00  0.00    +0.043 C 
BRANCH   5   6
ATOM      6  N   SER A   1      13.945  41.990  34.394  0.00  0.00    +0.389 N 
ATOM      7  H1  SER A   1      13.216  42.000  35.136  0.00  0.00    -0.088 HD
ATOM      8  H2  SER A   1      14.568  41.169  34.530  0.00  0.00    -0.088 HD
ATOM      9  H3  SER A   1      14.505  42.865  34.445  0.00  0.00    -0.088 HD
ENDBRANCH   5   6
BRANCH   5  10
ATOM     10  CB  SER A   1      12.310  40.719  33.286  0.00  0.00    +0.124 C 
BRANCH  10  11
ATOM     11  OG  SER A   1      13.086  39.576  33.092  0.00  0.00    -0.384 OA
ATOM     12  H   SER A   1      13.828  39.567  33.747  0.00  0.00    +0.210 HD
ENDBRANCH  10  11
ENDBRANCH   5  10
ENDBRANCH   1   5
BRANCH   3  13
ATOM     13  CA  ASN A   2      11.400  44.680  31.462  0.00  0.00    +0.146 C 
BRANCH  13  14
ATOM     14  C   ASN A   2      10.664  44.509  30.159  0.00  0.00    +0.227 C 
ATOM     15  O   ASN A   2      10.892  43.524  29.418  0.00  0.00    -0.286 OA
ENDBRANCH  13  14
BRANCH  13  16
ATOM     16  CB  ASN A   2      12.123  46.032  31.486  0.00  0.00    +0.112 C 
BRANCH  16  17
ATOM     17  CG  ASN A   2      13.211  46.003  30.439  0.00  0.00    +0.222 C 
ATOM     18  ND2 ASN A   2      14.123  46.769  31.063  0.00  0.00    -0.329 N 
ATOM     19 HD21 ASN A   2      13.912  47.171  31.999  0.00  0.00    +0.145 HD
ATOM     20 HD22 ASN A   2      15.040  46.959  30.610  0.00  0.00    +0.145 HD
ATOM     21  OD1 ASN A   2      13.400  45.500  29.335  0.00  0.00    -0.275 OA
ENDBRANCH  16  17
ENDBRANCH  13  16
ENDBRANCH   3  13
TORSDOF 8
REMARK  Name = ../refined-set-2016/1ai7/1ai7_pocket.pdb
REMARK  121 active torsions:
REMARK  status: ('A' for Active; 'I' for Inactive)
REMARK    1  A    between atoms: _1  and  _3
REMARK    2  A    between atoms: _3  and  _4
REMARK    3  A    between atoms: _3  and  _6
REMARK    4  A    between atoms: _6  and  _7
REMARK    5  A    between atoms: _10  and  _12
REMARK    6  A    between atoms: _12  and  _13
REMARK    7  A    between atoms: _12  and  _15
REMARK    8  A    between atoms: _15  and  _16
REMARK    9  A    between atoms: _16  and  _17
REMARK   10  A    between atoms: _19  and  _21
REMARK   11  A    between atoms: _21  and  _22
REMARK   12  A    between atoms: _21  and  _24
REMARK   13  A    between atoms: _24  and  _25
REMARK   14  A    between atoms: _25  and  _26
REMARK   15  A    between atoms: _26  and  _27
REMARK   16  A    between atoms: _36  and  _38
REMARK   17  A    between atoms: _38  and  _39
REMARK   18  A    between atoms: _38  and  _41
REMARK   19  A    between atoms: _41  and  _42
REMARK   20  A    between atoms: _48  and  _50
REMARK   21  A    between atoms: _50  and  _51
REMARK   22  A    between atoms: _50  and  _53
REMARK   23  A    between atoms: _53  and  _54
REMARK   24  A    between atoms: _56  and  _60
REMARK   25  A    between atoms: _60  and  _61
REMARK   26  A    between atoms: _60  and  _63
REMARK   27  A    between atoms: _63  and  _64
REMARK   28  A    between atoms: _66  and  _68
REMARK   29  A    between atoms: _68  and  _69
REMARK   30  A    between atoms: _68  and  _71
REMARK   31  A    between atoms: _71  and  _72
REMARK   32  A    between atoms: _77  and  _79
REMARK   33  A    between atoms: _79  and  _80
REMARK   34  A    between atoms: _79  and  _82
REMARK   35  A    between atoms: _82  and  _83
REMARK   36  A    between atoms: _88  and  _90
REMARK   37  A    between atoms: _90  and  _91
REMARK   38  A    between atoms: _94  and  _95
REMARK   39  A    between atoms: _100  and  _102
REMARK   40  A    between atoms: _102  and  _103
REMARK   41  A    between atoms: _102  and  _105
REMARK   42  A    between atoms: _105  and  _106
REMARK   43  A    between atoms: _106  and  _107
REMARK   44  A    between atoms: _112  and  _114
REMARK   45  A    between atoms: _114  and  _115
REMARK   46  A    between atoms: _114  and  _117
REMARK   47  A    between atoms: _117  and  _118
REMARK   48  A    between atoms: _124  and  _126
REMARK   49  A    between atoms: _126  and  _127
REMARK   50  A    between atoms: _126  and  _129
REMARK   51  A    between atoms: _129  and  _130
REMARK   52  A    between atoms: _135  and  _136
REMARK   53  A    between atoms: _139  and  _140
REMARK   54  A    between atoms: _145  and  _147
REMARK   55  A    between atoms: _147  and  _148
REMARK   56  A    between atoms: _147  and  _150
REMARK   57  A    between atoms: _150  and  _151
REMARK   58  A    between atoms: _156  and  _157
REMARK   59  A    between atoms: _159  and  _161
REMARK   60  A    between atoms: _161  and  _162
REMARK   61  A    between atoms: _161  and  _164
REMARK   62  A    between atoms: _167  and  _169
REMARK   63  A    between atoms: _169  and  _170
REMARK   64  A    between atoms: _169  and  _172
REMARK   65  A    between atoms: _172  and  _173
REMARK   66  A    between atoms: _179  and  _181
REMARK   67  A    between atoms: _181  and  _182
REMARK   68  A    between atoms: _184  and  _186
REMARK   69  A    between atoms: _186  and  _187
REMARK   70  A    between atoms: _186  and  _189
REMARK   71  A    between atoms: _189  and  _190
REMARK   72  A    between atoms: _192  and  _194
REMARK   73  A    between atoms: _194  and  _195
REMARK   74  A    between atoms: _194  and  _197
REMARK   75  A    between atoms: _197  and  _198
REMARK   76  A    between atoms: _201  and  _203
REMARK   77  A    between atoms: _203  and  _204
REMARK   78  A    between atoms: _207  and  _209
REMARK   79  A    between atoms: _209  and  _210
REMARK   80  A    between atoms: _212  and  _214
REMARK   81  A    between atoms: _214  and  _215
REMARK   82  A    between atoms: _214  and  _217
REMARK   83  A    between atoms: _217  and  _218
REMARK   84  A    between atoms: _224  and  _226
REMARK   85  A    between atoms: _226  and  _227
REMARK   86  A    between atoms: _226  and  _229
REMARK   87  A    between atoms: _229  and  _230
REMARK   88  A    between atoms: _240  and  _242
REMARK   89  A    between atoms: _242  and  _243
REMARK   90  A    between atoms: _242  and  _245
REMARK   91  A    between atoms: _245  and  _246
REMARK   92  A    between atoms: _246  and  _247
REMARK   93  A    between atoms: _252  and  _254
REMARK   94  A    between atoms: _254  and  _255
REMARK   95  A    between atoms: _254  and  _257
REMARK   96  A    between atoms: _257  and  _258
REMARK   97  A    between atoms: _261  and  _263
REMARK   98  A    between atoms: _263  and  _264
REMARK   99  A    between atoms: _263  and  _266
REMARK  100  A    between atoms: _266  and  _267
REMARK  101  A    between atoms: _270  and  _272
REMARK  102  A    between atoms: _272  and  _273
REMARK  103  A    between atoms: _272  and  _275
REMARK  104  A    between atoms: _275  and  _276
REMARK  105  A    between atoms: _281  and  _283
REMARK  106  A    between atoms: _283  and  _284
REMARK  107  A    between atoms: _283  and  _286
REMARK  108  A    between atoms: _286  and  _287
REMARK  109  A    between atoms: _297  and  _299
REMARK  110  A    between atoms: _299  and  _300
REMARK  111  A    between atoms: _299  and  _302
REMARK  112  A    between atoms: _302  and  _303
REMARK  113  A    between atoms: _308  and  _309
REMARK  114  A    between atoms: _311  and  _313
REMARK  115  A    between atoms: _313  and  _314
REMARK  116  A    between atoms: _313  and  _316
REMARK  117  A    between atoms: _316  and  _317
REMARK  118  A    between atoms: _322  and  _324
REMARK  119  A    between atoms: _324  and  _325
REMARK  120  A    between atoms: _324  and  _327
REMARK  121  A    between atoms: _327  and  _328
REMARK                            x       y       z     vdW  Elec       q    Type
REMARK                         _______ _______ _______ _____ _____    ______ ____
ROOT
ATOM      1  C   PRO A   3      15.089  39.234  30.244  0.00  0.00    +0.241 C 
ATOM      2  N   GLN A   4      15.366  39.329  31.541  0.00  0.00    -0.297 N 
ATOM      3  H   GLN A   4      14.593  39.336  32.237  0.00  0.00    +0.150 HD
ATOM      4  O   PRO A   3      15.948  39.263  29.381  0.00  0.00    -0.273 OA
ENDROOT
BRANCH   1   8
ATOM      5  C   GLY A   2      13.817  41.525  28.745  0.00  0.00    +0.246 C 
ATOM      6  O   GLY A   2      14.009  42.041  29.835  0.00  0.00    -0.273 OA
ATOM      7  N   PRO A   3      13.599  40.224  28.624  0.00  0.00    -0.272 N 
ATOM      8  CA  PRO A   3      13.653  39.269  29.725  0.00  0.00    +0.152 C 
ATOM      9  CB  PRO A   3      13.165  37.943  29.159  0.00  0.00    +0.031 C 
ATOM     10  CG  PRO A   3      13.474  38.097  27.672  0.00  0.00    +0.024 C 
ATOM     11  CD  PRO A   3      13.275  39.549  27.351  0.00  0.00    +0.094 C 
BRANCH   5  12
ATOM     12  CA  GLY A   2      13.741  42.338  27.456  0.00  0.00    +0.176 C 
BRANCH  12  14
ATOM     13  C   ASN A   1      11.823  42.484  25.939  0.00  0.00    +0.239 C 
ATOM     14  N   GLY A   2      12.360  42.601  27.143  0.00  0.00    -0.296 N 
ATOM     15  H   GLY A   2      11.739  42.905  27.920  0.00  0.00    +0.150 HD
ATOM     16  O   ASN A   1      12.463  42.343  24.928  0.00  0.00    -0.274 OA
BRANCH  13  17
ATOM     17  CA  ASN A   1      10.330  42.756  25.751  0.00  0.00    +0.154 C 
BRANCH  17  18
ATOM     18  N   ASN A   1      10.090  43.537  24.573  0.00  0.00    -0.238 NA
ATOM     19  H   ASN A   1      10.467  43.205  23.662  0.00  0.00    +0.142 HD
ENDBRANCH  17  18
BRANCH  17  20
ATOM     20  CB  ASN A   1       9.601  41.429  25.523  0.00  0.00    +0.111 C 
BRANCH  20  21
ATOM     21  CG  ASN A   1       9.278  40.603  26.742  0.00  0.00    +0.221 C 
ATOM     22  ND2 ASN A   1       9.643  40.948  27.972  0.00  0.00    -0.329 N 
ATOM     23 HD21 ASN A   1       9.315  40.392  28.787  0.00  0.00    +0.145 HD
ATOM     24 HD22 ASN A   1      10.257  41.774  28.120  0.00  0.00    +0.145 HD
ATOM     25  OD1 ASN A   1       8.552  39.636  26.490  0.00  0.00    -0.275 OA
ENDBRANCH  20  21
ENDBRANCH  17  20
ENDBRANCH  13  17
ENDBRANCH  12  14
ENDBRANCH   5  12
ENDBRANCH   1   8
BRANCH   2  26
ATOM     26  CA  GLN A   4      16.760  39.424  31.994  0.00  0.00    +0.149 C 
BRANCH  26  27
ATOM     27  C   GLN A   4      17.141  38.175  32.718  0.00  0.00    +0.241 C 
ATOM     28  O   GLN A   4      16.778  38.058  33.872  0.00  0.00    -0.273 OA
ATOM     29  N   PHE A   5      17.890  37.275  32.108  0.00  0.00    -0.298 N 
ATOM     30  H   PHE A   5      18.277  37.488  31.166  0.00  0.00    +0.150 HD
BRANCH  29  31
ATOM     31  CA  PHE A   5      18.182  36.002  32.722  0.00  0.00    +0.141 C 
BRANCH  31  32
ATOM     32  C   PHE A   5      19.648  35.895  33.049  0.00  0.00    +0.227 C 
ATOM     33  O   PHE A   5      20.037  34.789  33.450  0.00  0.00    -0.286 OA
ENDBRANCH  31  32
BRANCH  31  34
ATOM     34  CB  PHE A   5      17.795  34.963  31.640  0.00  0.00    +0.054 C 
BRANCH  34  35
ATOM     35  CG  PHE A   5      16.376  34.860  31.187  0.00  0.00    -0.020 A 
ATOM     36  CD2 PHE A   5      15.412  34.416  32.097  0.00  0.00    -0.004 A 
ATOM     37  CE2 PHE A   5      14.082  34.248  31.719  0.00  0.00    -0.000 A 
ATOM     38  CZ  PHE A   5      13.692  34.500  30.423  0.00  0.00    -0.000 A 
ATOM     39  CE1 PHE A   5      14.666  34.901  29.497  0.00  0.00    -0.000 A 
ATOM     40  CD1 PHE A   5      15.989  35.092  29.878  0.00  0.00    -0.004 A 
ENDBRANCH  34  35
ENDBRANCH  31  34
ENDBRANCH  29  31
ENDBRANCH  26  27
BRANCH  26  41
ATOM     41  CB  GLN A   4      16.953  40.678  32.833  0.00  0.00    +0.039 C 
BRANCH  41  42
ATOM     42  CG  GLN A   4      16.967  41.942  31.956  0.00  0.00    +0.087 C 
BRANCH  42  43
ATOM     43  CD  GLN A   4      17.183  43.229  32.719  0.00  0.00    +0.219 C 
ATOM     44  OE1 GLN A   4      16.344  43.529  33.577  0.00  0.00    -0.275 OA
ATOM     45  NE2 GLN A   4      18.269  43.956  32.397  0.00  0.00    -0.329 N 
ATOM     46 HE21 GLN A   4      18.458  44.854  32.887  0.00  0.00    +0.145 HD
ATOM     47 HE22 GLN A   4      18.920  43.620  31.659  0.00  0.00    +0.145 HD
ENDBRANCH  42  43
ENDBRANCH  41  42
ENDBRANCH  26  41
ENDBRANCH   2  26
TORSDOF 16
REMARK  Name = ../refined-set-2016/1ai7/1ai7_pocket.pdb
REMARK  121 active torsions:
REMARK  status: ('A' for Active; 'I' for Inactive)
REMARK    1  A    between atoms: _1  and  _3
REMARK    2  A    between atoms: _3  and  _4
REMARK    3  A    between atoms: _3  and  _6
REMARK    4  A    between atoms: _6  and  _7
REMARK    5  A    between atoms: _10  and  _12
REMARK    6  A    between atoms: _12  and  _13
REMARK    7  A    between atoms: _12  and  _15
REMARK    8  A    between atoms: _15  and  _16
REMARK    9  A    between atoms: _16  and  _17
REMARK   10  A    between atoms: _19  and  _21
REMARK   11  A    between atoms: _21  and  _22
REMARK   12  A    between atoms: _21  and  _24
REMARK   13  A    between atoms: _24  and  _25
REMARK   14  A    between atoms: _25  and  _26
REMARK   15  A    between atoms: _26  and  _27
REMARK   16  A    between atoms: _36  and  _38
REMARK   17  A    between atoms: _38  and  _39
REMARK   18  A    between atoms: _38  and  _41
REMARK   19  A    between atoms: _41  and  _42
REMARK   20  A    between atoms: _48  and  _50
REMARK   21  A    between atoms: _50  and  _51
REMARK   22  A    between atoms: _50  and  _53
REMARK   23  A    between atoms: _53  and  _54
REMARK   24  A    between atoms: _56  and  _60
REMARK   25  A    between atoms: _60  and  _61
REMARK   26  A    between atoms: _60  and  _63
REMARK   27  A    between atoms: _63  and  _64
REMARK   28  A    between atoms: _66  and  _68
REMARK   29  A    between atoms: _68  and  _69
REMARK   30  A    between atoms: _68  and  _71
REMARK   31  A    between atoms: _71  and  _72
REMARK   32  A    between atoms: _77  and  _79
REMARK   33  A    between atoms: _79  and  _80
REMARK   34  A    between atoms: _79  and  _82
REMARK   35  A    between atoms: _82  and  _83
REMARK   36  A    between atoms: _88  and  _90
REMARK   37  A    between atoms: _90  and  _91
REMARK   38  A    between atoms: _94  and  _95
REMARK   39  A    between atoms: _100  and  _102
REMARK   40  A    between atoms: _102  and  _103
REMARK   41  A    between atoms: _102  and  _105
REMARK   42  A    between atoms: _105  and  _106
REMARK   43  A    between atoms: _106  and  _107
REMARK   44  A    between atoms: _112  and  _114
REMARK   45  A    between atoms: _114  and  _115
REMARK   46  A    between atoms: _114  and  _117
REMARK   47  A    between atoms: _117  and  _118
REMARK   48  A    between atoms: _124  and  _126
REMARK   49  A    between atoms: _126  and  _127
REMARK   50  A    between atoms: _126  and  _129
REMARK   51  A    between atoms: _129  and  _130
REMARK   52  A    between atoms: _135  and  _136
REMARK   53  A    between atoms: _139  and  _140
REMARK   54  A    between atoms: _145  and  _147
REMARK   55  A    between atoms: _147  and  _148
REMARK   56  A    between atoms: _147  and  _150
REMARK   57  A    between atoms: _150  and  _151
REMARK   58  A    between atoms: _156  and  _157
REMARK   59  A    between atoms: _159  and  _161
REMARK   60  A    between atoms: _161  and  _162
REMARK   61  A    between atoms: _161  and  _164
REMARK   62  A    between atoms: _167  and  _169
REMARK   63  A    between atoms: _169  and  _170
REMARK   64  A    between atoms: _169  and  _172
REMARK   65  A    between atoms: _172  and  _173
REMARK   66  A    between atoms: _179  and  _181
REMARK   67  A    between atoms: _181  and  _182
REMARK   68  A    between atoms: _184  and  _186
REMARK   69  A    between atoms: _186  and  _187
REMARK   70  A    between atoms: _186  and  _189
REMARK   71  A    between atoms: _189  and  _190
REMARK   72  A    between atoms: _192  and  _194
REMARK   73  A    between atoms: _194  and  _195
REMARK   74  A    between atoms: _194  and  _197
REMARK   75  A    between atoms: _197  and  _198
REMARK   76  A    between atoms: _201  and  _203
REMARK   77  A    between atoms: _203  and  _204
REMARK   78  A    between atoms: _207  and  _209
REMARK   79  A    between atoms: _209  and  _210
REMARK   80  A    between atoms: _212  and  _214
REMARK   81  A    between atoms: _214  and  _215
REMARK   82  A    between atoms: _214  and  _217
REMARK   83  A    between atoms: _217  and  _218
REMARK   84  A    between atoms: _224  and  _226
REMARK   85  A    between atoms: _226  and  _227
REMARK   86  A    between atoms: _226  and  _229
REMARK   87  A    between atoms: _229  and  _230
REMARK   88  A    between atoms: _240  and  _242
REMARK   89  A    between atoms: _242  and  _243
REMARK   90  A    between atoms: _242  and  _245
REMARK   91  A    between atoms: _245  and  _246
REMARK   92  A    between atoms: _246  and  _247
REMARK   93  A    between atoms: _252  and  _254
REMARK   94  A    between atoms: _254  and  _255
REMARK   95  A    between atoms: _254  and  _257
REMARK   96  A    between atoms: _257  and  _258
REMARK   97  A    between atoms: _261  and  _263
REMARK   98  A    between atoms: _263  and  _264
REMARK   99  A    between atoms: _263  and  _266
REMARK  100  A    between atoms: _266  and  _267
REMARK  101  A    between atoms: _270  and  _272
REMARK  102  A    between atoms: _272  and  _273
REMARK  103  A    between atoms: _272  and  _275
REMARK  104  A    between atoms: _275  and  _276
REMARK  105  A    between atoms: _281  and  _283
REMARK  106  A    between atoms: _283  and  _284
REMARK  107  A    between atoms: _283  and  _286
REMARK  108  A    between atoms: _286  and  _287
REMARK  109  A    between atoms: _297  and  _299
REMARK  110  A    between atoms: _299  and  _300
REMARK  111  A    between atoms: _299  and  _302
REMARK  112  A    between atoms: _302  and  _303
REMARK  113  A    between atoms: _308  and  _309
REMARK  114  A    between atoms: _311  and  _313
REMARK  115  A    between atoms: _313  and  _314
REMARK  116  A    between atoms: _313  and  _316
REMARK  117  A    between atoms: _316  and  _317
REMARK  118  A    between atoms: _322  and  _324
REMARK  119  A    between atoms: _324  and  _325
REMARK  120  A    between atoms: _324  and  _327
REMARK  121  A    between atoms: _327  and  _328
REMARK                            x       y       z     vdW  Elec       q    Type
REMARK                         _______ _______ _______ _____ _____    ______ ____
ROOT
ATOM      1  CG  TYR A   1      18.659  31.941  29.201  0.00  0.00    -0.020 A 
ATOM      2  CD2 TYR A   1      19.403  31.462  30.285  0.00  0.00    -0.001 A 
ATOM      3  CE2 TYR A   1      18.793  31.098  31.462  0.00  0.00    +0.036 A 
ATOM      4  CZ  TYR A   1      17.421  31.224  31.574  0.00  0.00    +0.134 A 
ATOM      5  CE1 TYR A   1      16.687  31.677  30.515  0.00  0.00    +0.036 A 
ATOM      6  CD1 TYR A   1      17.275  32.052  29.333  0.00  0.00    -0.001 A 
ENDROOT
BRANCH   4   7
ATOM      7  OH  TYR A   1      16.820  30.875  32.774  0.00  0.00    -0.506 OA
ATOM      8  HH  TYR A   1      16.173  30.143  32.617  0.00  0.00    +0.292 HD
ENDBRANCH   4   7
BRANCH   1   9
ATOM      9  CB  TYR A   1      19.400  32.312  27.947  0.00  0.00    +0.051 C 
BRANCH   9  10
ATOM     10  CA  TYR A   1      19.715  31.198  26.944  0.00  0.00    +0.137 C 
BRANCH  10  11
ATOM     11  N   TYR A   1      20.639  31.607  25.931  0.00  0.00    -0.239 NA
ATOM     12  H   TYR A   1      20.912  32.609  25.881  0.00  0.00    +0.142 HD
ENDBRANCH  10  11
BRANCH  10  13
ATOM     13  C   TYR A   1      18.390  30.867  26.255  0.00  0.00    +0.224 C 
ATOM     14  O   TYR A   1      17.717  29.951  26.749  0.00  0.00    -0.287 OA
ENDBRANCH  10  13
ENDBRANCH   9  10
ENDBRANCH   1   9
TORSDOF 5
REMARK  Name = ../refined-set-2016/1ai7/1ai7_pocket.pdb
REMARK  121 active torsions:
REMARK  status: ('A' for Active; 'I' for Inactive)
REMARK    1  A    between atoms: _1  and  _3
REMARK    2  A    between atoms: _3  and  _4
REMARK    3  A    between atoms: _3  and  _6
REMARK    4  A    between atoms: _6  and  _7
REMARK    5  A    between atoms: _10  and  _12
REMARK    6  A    between atoms: _12  and  _13
REMARK    7  A    between atoms: _12  and  _15
REMARK    8  A    between atoms: _15  and  _16
REMARK    9  A    between atoms: _16  and  _17
REMARK   10  A    between atoms: _19  and  _21
REMARK   11  A    between atoms: _21  and  _22
REMARK   12  A    between atoms: _21  and  _24
REMARK   13  A    between atoms: _24  and  _25
REMARK   14  A    between atoms: _25  and  _26
REMARK   15  A    between atoms: _26  and  _27
REMARK   16  A    between atoms: _36  and  _38
REMARK   17  A    between atoms: _38  and  _39
REMARK   18  A    between atoms: _38  and  _41
REMARK   19  A    between atoms: _41  and  _42
REMARK   20  A    between atoms: _48  and  _50
REMARK   21  A    between atoms: _50  and  _51
REMARK   22  A    between atoms: _50  and  _53
REMARK   23  A    between atoms: _53  and  _54
REMARK   24  A    between atoms: _56  and  _60
REMARK   25  A    between atoms: _60  and  _61
REMARK   26  A    between atoms: _60  and  _63
REMARK   27  A    between atoms: _63  and  _64
REMARK   28  A    between atoms: _66  and  _68
REMARK   29  A    between atoms: _68  and  _69
REMARK   30  A    between atoms: _68  and  _71
REMARK   31  A    between atoms: _71  and  _72
REMARK   32  A    between atoms: _77  and  _79
REMARK   33  A    between atoms: _79  and  _80
REMARK   34  A    between atoms: _79  and  _82
REMARK   35  A    between atoms: _82  and  _83
REMARK   36  A    between atoms: _88  and  _90
REMARK   37  A    between atoms: _90  and  _91
REMARK   38  A    between atoms: _94  and  _95
REMARK   39  A    between atoms: _100  and  _102
REMARK   40  A    between atoms: _102  and  _103
REMARK   41  A    between atoms: _102  and  _105
REMARK   42  A    between atoms: _105  and  _106
REMARK   43  A    between atoms: _106  and  _107
REMARK   44  A    between atoms: _112  and  _114
REMARK   45  A    between atoms: _114  and  _115
REMARK   46  A    between atoms: _114  and  _117
REMARK   47  A    between atoms: _117  and  _118
REMARK   48  A    between atoms: _124  and  _126
REMARK   49  A    between atoms: _126  and  _127
REMARK   50  A    between atoms: _126  and  _129
REMARK   51  A    between atoms: _129  and  _130
REMARK   52  A    between atoms: _135  and  _136
REMARK   53  A    between atoms: _139  and  _140
REMARK   54  A    between atoms: _145  and  _147
REMARK   55  A    between atoms: _147  and  _148
REMARK   56  A    between atoms: _147  and  _150
REMARK   57  A    between atoms: _150  and  _151
REMARK   58  A    between atoms: _156  and  _157
REMARK   59  A    between atoms: _159  and  _161
REMARK   60  A    between atoms: _161  and  _162
REMARK   61  A    between atoms: _161  and  _164
REMARK   62  A    between atoms: _167  and  _169
REMARK   63  A    between atoms: _169  and  _170
REMARK   64  A    between atoms: _169  and  _172
REMARK   65  A    between atoms: _172  and  _173
REMARK   66  A    between atoms: _179  and  _181
REMARK   67  A    between atoms: _181  and  _182
REMARK   68  A    between atoms: _184  and  _186
REMARK   69  A    between atoms: _186  and  _187
REMARK   70  A    between atoms: _186  and  _189
REMARK   71  A    between atoms: _189  and  _190
REMARK   72  A    between atoms: _192  and  _194
REMARK   73  A    between atoms: _194  and  _195
REMARK   74  A    between atoms: _194  and  _197
REMARK   75  A    between atoms: _197  and  _198
REMARK   76  A    between atoms: _201  and  _203
REMARK   77  A    between atoms: _203  and  _204
REMARK   78  A    between atoms: _207  and  _209
REMARK   79  A    between atoms: _209  and  _210
REMARK   80  A    between atoms: _212  and  _214
REMARK   81  A    between atoms: _214  and  _215
REMARK   82  A    between atoms: _214  and  _217
REMARK   83  A    between atoms: _217  and  _218
REMARK   84  A    between atoms: _224  and  _226
REMARK   85  A    between atoms: _226  and  _227
REMARK   86  A    between atoms: _226  and  _229
REMARK   87  A    between atoms: _229  and  _230
REMARK   88  A    between atoms: _240  and  _242
REMARK   89  A    between atoms: _242  and  _243
REMARK   90  A    between atoms: _242  and  _245
REMARK   91  A    between atoms: _245  and  _246
REMARK   92  A    between atoms: _246  and  _247
REMARK   93  A    between atoms: _252  and  _254
REMARK   94  A    between atoms: _254  and  _255
REMARK   95  A    between atoms: _254  and  _257
REMARK   96  A    between atoms: _257  and  _258
REMARK   97  A    between atoms: _261  and  _263
REMARK   98  A    between atoms: _263  and  _264
REMARK   99  A    between atoms: _263  and  _266
REMARK  100  A    between atoms: _266  and  _267
REMARK  101  A    between atoms: _270  and  _272
REMARK  102  A    between atoms: _272  and  _273
REMARK  103  A    between atoms: _272  and  _275
REMARK  104  A    between atoms: _275  and  _276
REMARK  105  A    between atoms: _281  and  _283
REMARK  106  A    between atoms: _283  and  _284
REMARK  107  A    between atoms: _283  and  _286
REMARK  108  A    between atoms: _286  and  _287
REMARK  109  A    between atoms: _297  and  _299
REMARK  110  A    between atoms: _299  and  _300
REMARK  111  A    between atoms: _299  and  _302
REMARK  112  A    between atoms: _302  and  _303
REMARK  113  A    between atoms: _308  and  _309
REMARK  114  A    between atoms: _311  and  _313
REMARK  115  A    between atoms: _313  and  _314
REMARK  116  A    between atoms: _313  and  _316
REMARK  117  A    between atoms: _316  and  _317
REMARK  118  A    between atoms: _322  and  _324
REMARK  119  A    between atoms: _324  and  _325
REMARK  120  A    between atoms: _324  and  _327
REMARK  121  A    between atoms: _327  and  _328
REMARK                            x       y       z     vdW  Elec       q    Type
REMARK                         _______ _______ _______ _____ _____    ______ ____
ROOT
ATOM      1  N   PRO A   1      13.170  30.289  26.371  0.00  0.00    -0.212 NA
ATOM      2  CA  PRO A   1      14.244  29.794  27.191  0.00  0.00    +0.137 C 
ATOM      3  CB  PRO A   1      13.934  30.185  28.651  0.00  0.00    +0.027 C 
ATOM      4  CG  PRO A   1      12.789  31.173  28.501  0.00  0.00    +0.021 C 
ATOM      5  CD  PRO A   1      12.254  31.196  27.100  0.00  0.00    +0.089 C 
ENDROOT
BRANCH   2   6
ATOM      6  C   PRO A   1      14.335  28.280  27.128  0.00  0.00    +0.224 C 
ATOM      7  O   PRO A   1      13.286  27.658  27.255  0.00  0.00    -0.287 OA
ENDBRANCH   2   6
TORSDOF 1
REMARK  Name = ../refined-set-2016/1ai7/1ai7_pocket.pdb
REMARK  121 active torsions:
REMARK  status: ('A' for Active; 'I' for Inactive)
REMARK    1  A    between atoms: _1  and  _3
REMARK    2  A    between atoms: _3  and  _4
REMARK    3  A    between atoms: _3  and  _6
REMARK    4  A    between atoms: _6  and  _7
REMARK    5  A    between atoms: _10  and  _12
REMARK    6  A    between atoms: _12  and  _13
REMARK    7  A    between atoms: _12  and  _15
REMARK    8  A    between atoms: _15  and  _16
REMARK    9  A    between atoms: _16  and  _17
REMARK   10  A    between atoms: _19  and  _21
REMARK   11  A    between atoms: _21  and  _22
REMARK   12  A    between atoms: _21  and  _24
REMARK   13  A    between atoms: _24  and  _25
REMARK   14  A    between atoms: _25  and  _26
REMARK   15  A    between atoms: _26  and  _27
REMARK   16  A    between atoms: _36  and  _38
REMARK   17  A    between atoms: _38  and  _39
REMARK   18  A    between atoms: _38  and  _41
REMARK   19  A    between atoms: _41  and  _42
REMARK   20  A    between atoms: _48  and  _50
REMARK   21  A    between atoms: _50  and  _51
REMARK   22  A    between atoms: _50  and  _53
REMARK   23  A    between atoms: _53  and  _54
REMARK   24  A    between atoms: _56  and  _60
REMARK   25  A    between atoms: _60  and  _61
REMARK   26  A    between atoms: _60  and  _63
REMARK   27  A    between atoms: _63  and  _64
REMARK   28  A    between atoms: _66  and  _68
REMARK   29  A    between atoms: _68  and  _69
REMARK   30  A    between atoms: _68  and  _71
REMARK   31  A    between atoms: _71  and  _72
REMARK   32  A    between atoms: _77  and  _79
REMARK   33  A    between atoms: _79  and  _80
REMARK   34  A    between atoms: _79  and  _82
REMARK   35  A    between atoms: _82  and  _83
REMARK   36  A    between atoms: _88  and  _90
REMARK   37  A    between atoms: _90  and  _91
REMARK   38  A    between atoms: _94  and  _95
REMARK   39  A    between atoms: _100  and  _102
REMARK   40  A    between atoms: _102  and  _103
REMARK   41  A    between atoms: _102  and  _105
REMARK   42  A    between atoms: _105  and  _106
REMARK   43  A    between atoms: _106  and  _107
REMARK   44  A    between atoms: _112  and  _114
REMARK   45  A    between atoms: _114  and  _115
REMARK   46  A    between atoms: _114  and  _117
REMARK   47  A    between atoms: _117  and  _118
REMARK   48  A    between atoms: _124  and  _126
REMARK   49  A    between atoms: _126  and  _127
REMARK   50  A    between atoms: _126  and  _129
REMARK   51  A    between atoms: _129  and  _130
REMARK   52  A    between atoms: _135  and  _136
REMARK   53  A    between atoms: _139  and  _140
REMARK   54  A    between atoms: _145  and  _147
REMARK   55  A    between atoms: _147  and  _148
REMARK   56  A    between atoms: _147  and  _150
REMARK   57  A    between atoms: _150  and  _151
REMARK   58  A    between atoms: _156  and  _157
REMARK   59  A    between atoms: _159  and  _161
REMARK   60  A    between atoms: _161  and  _162
REMARK   61  A    between atoms: _161  and  _164
REMARK   62  A    between atoms: _167  and  _169
REMARK   63  A    between atoms: _169  and  _170
REMARK   64  A    between atoms: _169  and  _172
REMARK   65  A    between atoms: _172  and  _173
REMARK   66  A    between atoms: _179  and  _181
REMARK   67  A    between atoms: _181  and  _182
REMARK   68  A    between atoms: _184  and  _186
REMARK   69  A    between atoms: _186  and  _187
REMARK   70  A    between atoms: _186  and  _189
REMARK   71  A    between atoms: _189  and  _190
REMARK   72  A    between atoms: _192  and  _194
REMARK   73  A    between atoms: _194  and  _195
REMARK   74  A    between atoms: _194  and  _197
REMARK   75  A    between atoms: _197  and  _198
REMARK   76  A    between atoms: _201  and  _203
REMARK   77  A    between atoms: _203  and  _204
REMARK   78  A    between atoms: _207  and  _209
REMARK   79  A    between atoms: _209  and  _210
REMARK   80  A    between atoms: _212  and  _214
REMARK   81  A    between atoms: _214  and  _215
REMARK   82  A    between atoms: _214  and  _217
REMARK   83  A    between atoms: _217  and  _218
REMARK   84  A    between atoms: _224  and  _226
REMARK   85  A    between atoms: _226  and  _227
REMARK   86  A    between atoms: _226  and  _229
REMARK   87  A    between atoms: _229  and  _230
REMARK   88  A    between atoms: _240  and  _242
REMARK   89  A    between atoms: _242  and  _243
REMARK   90  A    between atoms: _242  and  _245
REMARK   91  A    between atoms: _245  and  _246
REMARK   92  A    between atoms: _246  and  _247
REMARK   93  A    between atoms: _252  and  _254
REMARK   94  A    between atoms: _254  and  _255
REMARK   95  A    between atoms: _254  and  _257
REMARK   96  A    between atoms: _257  and  _258
REMARK   97  A    between atoms: _261  and  _263
REMARK   98  A    between atoms: _263  and  _264
REMARK   99  A    between atoms: _263  and  _266
REMARK  100  A    between atoms: _266  and  _267
REMARK  101  A    between atoms: _270  and  _272
REMARK  102  A    between atoms: _272  and  _273
REMARK  103  A    between atoms: _272  and  _275
REMARK  104  A    between atoms: _275  and  _276
REMARK  105  A    between atoms: _281  and  _283
REMARK  106  A    between atoms: _283  and  _284
REMARK  107  A    between atoms: _283  and  _286
REMARK  108  A    between atoms: _286  and  _287
REMARK  109  A    between atoms: _297  and  _299
REMARK  110  A    between atoms: _299  and  _300
REMARK  111  A    between atoms: _299  and  _302
REMARK  112  A    between atoms: _302  and  _303
REMARK  113  A    between atoms: _308  and  _309
REMARK  114  A    between atoms: _311  and  _313
REMARK  115  A    between atoms: _313  and  _314
REMARK  116  A    between atoms: _313  and  _316
REMARK  117  A    between atoms: _316  and  _317
REMARK  118  A    between atoms: _322  and  _324
REMARK  119  A    between atoms: _324  and  _325
REMARK  120  A    between atoms: _324  and  _327
REMARK  121  A    between atoms: _327  and  _328
REMARK                            x       y       z     vdW  Elec       q    Type
REMARK                         _______ _______ _______ _____ _____    ______ ____
ROOT
ATOM      1  CG  TYR A   1      10.455  26.360  28.320  0.00  0.00    -0.020 A 
ATOM      2  CD2 TYR A   1      11.368  25.575  29.022  0.00  0.00    -0.001 A 
ATOM      3  CE2 TYR A   1      12.098  26.083  30.056  0.00  0.00    +0.036 A 
ATOM      4  CZ  TYR A   1      11.859  27.399  30.493  0.00  0.00    +0.134 A 
ATOM      5  CE1 TYR A   1      10.940  28.189  29.852  0.00  0.00    +0.036 A 
ATOM      6  CD1 TYR A   1      10.252  27.667  28.767  0.00  0.00    -0.001 A 
ENDROOT
BRANCH   4   7
ATOM      7  OH  TYR A   1      12.572  27.847  31.575  0.00  0.00    -0.506 OA
ATOM      8  HH  TYR A   1      13.178  27.130  31.889  0.00  0.00    +0.292 HD
ENDBRANCH   4   7
BRANCH   1   9
ATOM      9  CB  TYR A   1       9.713  25.844  27.120  0.00  0.00    +0.051 C 
BRANCH   9  10
ATOM     10  CA  TYR A   1      10.405  24.864  26.168  0.00  0.00    +0.137 C 
BRANCH  10  11
ATOM     11  N   TYR A   1      11.635  25.415  25.621  0.00  0.00    -0.239 NA
ATOM     12  H   TYR A   1      12.010  26.305  26.007  0.00  0.00    +0.142 HD
ENDBRANCH  10  11
BRANCH  10  13
ATOM     13  C   TYR A   1       9.441  24.595  24.992  0.00  0.00    +0.224 C 
ATOM     14  O   TYR A   1       9.376  25.408  24.057  0.00  0.00    -0.287 OA
ENDBRANCH  10  13
ENDBRANCH   9  10
ENDBRANCH   1   9
TORSDOF 5
REMARK  Name = ../refined-set-2016/1ai7/1ai7_pocket.pdb
REMARK  121 active torsions:
REMARK  status: ('A' for Active; 'I' for Inactive)
REMARK    1  A    between atoms: _1  and  _3
REMARK    2  A    between atoms: _3  and  _4
REMARK    3  A    between atoms: _3  and  _6
REMARK    4  A    between atoms: _6  and  _7
REMARK    5  A    between atoms: _10  and  _12
REMARK    6  A    between atoms: _12  and  _13
REMARK    7  A    between atoms: _12  and  _15
REMARK    8  A    between atoms: _15  and  _16
REMARK    9  A    between atoms: _16  and  _17
REMARK   10  A    between atoms: _19  and  _21
REMARK   11  A    between atoms: _21  and  _22
REMARK   12  A    between atoms: _21  and  _24
REMARK   13  A    between atoms: _24  and  _25
REMARK   14  A    between atoms: _25  and  _26
REMARK   15  A    between atoms: _26  and  _27
REMARK   16  A    between atoms: _36  and  _38
REMARK   17  A    between atoms: _38  and  _39
REMARK   18  A    between atoms: _38  and  _41
REMARK   19  A    between atoms: _41  and  _42
REMARK   20  A    between atoms: _48  and  _50
REMARK   21  A    between atoms: _50  and  _51
REMARK   22  A    between atoms: _50  and  _53
REMARK   23  A    between atoms: _53  and  _54
REMARK   24  A    between atoms: _56  and  _60
REMARK   25  A    between atoms: _60  and  _61
REMARK   26  A    between atoms: _60  and  _63
REMARK   27  A    between atoms: _63  and  _64
REMARK   28  A    between atoms: _66  and  _68
REMARK   29  A    between atoms: _68  and  _69
REMARK   30  A    between atoms: _68  and  _71
REMARK   31  A    between atoms: _71  and  _72
REMARK   32  A    between atoms: _77  and  _79
REMARK   33  A    between atoms: _79  and  _80
REMARK   34  A    between atoms: _79  and  _82
REMARK   35  A    between atoms: _82  and  _83
REMARK   36  A    between atoms: _88  and  _90
REMARK   37  A    between atoms: _90  and  _91
REMARK   38  A    between atoms: _94  and  _95
REMARK   39  A    between atoms: _100  and  _102
REMARK   40  A    between atoms: _102  and  _103
REMARK   41  A    between atoms: _102  and  _105
REMARK   42  A    between atoms: _105  and  _106
REMARK   43  A    between atoms: _106  and  _107
REMARK   44  A    between atoms: _112  and  _114
REMARK   45  A    between atoms: _114  and  _115
REMARK   46  A    between atoms: _114  and  _117
REMARK   47  A    between atoms: _117  and  _118
REMARK   48  A    between atoms: _124  and  _126
REMARK   49  A    between atoms: _126  and  _127
REMARK   50  A    between atoms: _126  and  _129
REMARK   51  A    between atoms: _129  and  _130
REMARK   52  A    between atoms: _135  and  _136
REMARK   53  A    between atoms: _139  and  _140
REMARK   54  A    between atoms: _145  and  _147
REMARK   55  A    between atoms: _147  and  _148
REMARK   56  A    between atoms: _147  and  _150
REMARK   57  A    between atoms: _150  and  _151
REMARK   58  A    between atoms: _156  and  _157
REMARK   59  A    between atoms: _159  and  _161
REMARK   60  A    between atoms: _161  and  _162
REMARK   61  A    between atoms: _161  and  _164
REMARK   62  A    between atoms: _167  and  _169
REMARK   63  A    between atoms: _169  and  _170
REMARK   64  A    between atoms: _169  and  _172
REMARK   65  A    between atoms: _172  and  _173
REMARK   66  A    between atoms: _179  and  _181
REMARK   67  A    between atoms: _181  and  _182
REMARK   68  A    between atoms: _184  and  _186
REMARK   69  A    between atoms: _186  and  _187
REMARK   70  A    between atoms: _186  and  _189
REMARK   71  A    between atoms: _189  and  _190
REMARK   72  A    between atoms: _192  and  _194
REMARK   73  A    between atoms: _194  and  _195
REMARK   74  A    between atoms: _194  and  _197
REMARK   75  A    between atoms: _197  and  _198
REMARK   76  A    between atoms: _201  and  _203
REMARK   77  A    between atoms: _203  and  _204
REMARK   78  A    between atoms: _207  and  _209
REMARK   79  A    between atoms: _209  and  _210
REMARK   80  A    between atoms: _212  and  _214
REMARK   81  A    between atoms: _214  and  _215
REMARK   82  A    between atoms: _214  and  _217
REMARK   83  A    between atoms: _217  and  _218
REMARK   84  A    between atoms: _224  and  _226
REMARK   85  A    between atoms: _226  and  _227
REMARK   86  A    between atoms: _226  and  _229
REMARK   87  A    between atoms: _229  and  _230
REMARK   88  A    between atoms: _240  and  _242
REMARK   89  A    between atoms: _242  and  _243
REMARK   90  A    between atoms: _242  and  _245
REMARK   91  A    between atoms: _245  and  _246
REMARK   92  A    between atoms: _246  and  _247
REMARK   93  A    between atoms: _252  and  _254
REMARK   94  A    between atoms: _254  and  _255
REMARK   95  A    between atoms: _254  and  _257
REMARK   96  A    between atoms: _257  and  _258
REMARK   97  A    between atoms: _261  and  _263
REMARK   98  A    between atoms: _263  and  _264
REMARK   99  A    between atoms: _263  and  _266
REMARK  100  A    between atoms: _266  and  _267
REMARK  101  A    between atoms: _270  and  _272
REMARK  102  A    between atoms: _272  and  _273
REMARK  103  A    between atoms: _272  and  _275
REMARK  104  A    between atoms: _275  and  _276
REMARK  105  A    between atoms: _281  and  _283
REMARK  106  A    between atoms: _283  and  _284
REMARK  107  A    between atoms: _283  and  _286
REMARK  108  A    between atoms: _286  and  _287
REMARK  109  A    between atoms: _297  and  _299
REMARK  110  A    between atoms: _299  and  _300
REMARK  111  A    between atoms: _299  and  _302
REMARK  112  A    between atoms: _302  and  _303
REMARK  113  A    between atoms: _308  and  _309
REMARK  114  A    between atoms: _311  and  _313
REMARK  115  A    between atoms: _313  and  _314
REMARK  116  A    between atoms: _313  and  _316
REMARK  117  A    between atoms: _316  and  _317
REMARK  118  A    between atoms: _322  and  _324
REMARK  119  A    between atoms: _324  and  _325
REMARK  120  A    between atoms: _324  and  _327
REMARK  121  A    between atoms: _327  and  _328
REMARK                            x       y       z     vdW  Elec       q    Type
REMARK                         _______ _______ _______ _____ _____    ______ ____
ROOT
ATOM      1  C   VAL A   1       7.513  33.889  25.389  0.00  0.00    +0.238 C 
ATOM      2  O   VAL A   1       6.851  34.814  25.877  0.00  0.00    -0.274 OA
ATOM      3  N   PHE A   2       8.205  34.064  24.252  0.00  0.00    -0.298 N 
ATOM      4  H   PHE A   2       8.757  33.272  23.865  0.00  0.00    +0.150 HD
ENDROOT
BRANCH   1   5
ATOM      5  CA  VAL A   1       7.547  32.592  26.137  0.00  0.00    +0.145 C 
BRANCH   5   6
ATOM      6  CB  VAL A   1       8.552  32.577  27.300  0.00  0.00    +0.025 C 
ATOM      7  CG2 VAL A   1       8.398  33.729  28.288  0.00  0.00    +0.002 C 
ATOM      8  CG1 VAL A   1       8.476  31.194  27.974  0.00  0.00    +0.002 C 
ENDBRANCH   5   6
BRANCH   5   9
ATOM      9  N   VAL A   1       7.840  31.468  25.211  0.00  0.00    -0.238 NA
ATOM     10  H   VAL A   1       8.772  31.008  25.185  0.00  0.00    +0.142 HD
ENDBRANCH   5   9
ENDBRANCH   1   5
BRANCH   3  11
ATOM     11  CA  PHE A   2       8.199  35.343  23.548  0.00  0.00    +0.141 C 
BRANCH  11  12
ATOM     12  C   PHE A   2       7.878  35.167  22.075  0.00  0.00    +0.227 C 
ATOM     13  O   PHE A   2       8.671  34.464  21.415  0.00  0.00    -0.286 OA
ENDBRANCH  11  12
BRANCH  11  14
ATOM     14  CB  PHE A   2       9.560  36.077  23.633  0.00  0.00    +0.054 C 
BRANCH  14  15
ATOM     15  CG  PHE A   2      10.209  35.987  24.981  0.00  0.00    -0.020 A 
ATOM     16  CD2 PHE A   2       9.719  36.767  26.022  0.00  0.00    -0.004 A 
ATOM     17  CE2 PHE A   2      10.207  36.621  27.306  0.00  0.00    -0.000 A 
ATOM     18  CZ  PHE A   2      11.183  35.669  27.559  0.00  0.00    -0.000 A 
ATOM     19  CE1 PHE A   2      11.718  34.917  26.518  0.00  0.00    -0.000 A 
ATOM     20  CD1 PHE A   2      11.210  35.067  25.240  0.00  0.00    -0.004 A 
ENDBRANCH  14  15
ENDBRANCH  11  14
ENDBRANCH   3  11
TORSDOF 7
REMARK  Name = ../refined-set-2016/1ai7/1ai7_pocket.pdb
REMARK  121 active torsions:
REMARK  status: ('A' for Active; 'I' for Inactive)
REMARK    1  A    between atoms: _1  and  _3
REMARK    2  A    between atoms: _3  and  _4
REMARK    3  A    between atoms: _3  and  _6
REMARK    4  A    between atoms: _6  and  _7
REMARK    5  A    between atoms: _10  and  _12
REMARK    6  A    between atoms: _12  and  _13
REMARK    7  A    between atoms: _12  and  _15
REMARK    8  A    between atoms: _15  and  _16
REMARK    9  A    between atoms: _16  and  _17
REMARK   10  A    between atoms: _19  and  _21
REMARK   11  A    between atoms: _21  and  _22
REMARK   12  A    between atoms: _21  and  _24
REMARK   13  A    between atoms: _24  and  _25
REMARK   14  A    between atoms: _25  and  _26
REMARK   15  A    between atoms: _26  and  _27
REMARK   16  A    between atoms: _36  and  _38
REMARK   17  A    between atoms: _38  and  _39
REMARK   18  A    between atoms: _38  and  _41
REMARK   19  A    between atoms: _41  and  _42
REMARK   20  A    between atoms: _48  and  _50
REMARK   21  A    between atoms: _50  and  _51
REMARK   22  A    between atoms: _50  and  _53
REMARK   23  A    between atoms: _53  and  _54
REMARK   24  A    between atoms: _56  and  _60
REMARK   25  A    between atoms: _60  and  _61
REMARK   26  A    between atoms: _60  and  _63
REMARK   27  A    between atoms: _63  and  _64
REMARK   28  A    between atoms: _66  and  _68
REMARK   29  A    between atoms: _68  and  _69
REMARK   30  A    between atoms: _68  and  _71
REMARK   31  A    between atoms: _71  and  _72
REMARK   32  A    between atoms: _77  and  _79
REMARK   33  A    between atoms: _79  and  _80
REMARK   34  A    between atoms: _79  and  _82
REMARK   35  A    between atoms: _82  and  _83
REMARK   36  A    between atoms: _88  and  _90
REMARK   37  A    between atoms: _90  and  _91
REMARK   38  A    between atoms: _94  and  _95
REMARK   39  A    between atoms: _100  and  _102
REMARK   40  A    between atoms: _102  and  _103
REMARK   41  A    between atoms: _102  and  _105
REMARK   42  A    between atoms: _105  and  _106
REMARK   43  A    between atoms: _106  and  _107
REMARK   44  A    between atoms: _112  and  _114
REMARK   45  A    between atoms: _114  and  _115
REMARK   46  A    between atoms: _114  and  _117
REMARK   47  A    between atoms: _117  and  _118
REMARK   48  A    between atoms: _124  and  _126
REMARK   49  A    between atoms: _126  and  _127
REMARK   50  A    between atoms: _126  and  _129
REMARK   51  A    between atoms: _129  and  _130
REMARK   52  A    between atoms: _135  and  _136
REMARK   53  A    between atoms: _139  and  _140
REMARK   54  A    between atoms: _145  and  _147
REMARK   55  A    between atoms: _147  and  _148
REMARK   56  A    between atoms: _147  and  _150
REMARK   57  A    between atoms: _150  and  _151
REMARK   58  A    between atoms: _156  and  _157
REMARK   59  A    between atoms: _159  and  _161
REMARK   60  A    between atoms: _161  and  _162
REMARK   61  A    between atoms: _161  and  _164
REMARK   62  A    between atoms: _167  and  _169
REMARK   63  A    between atoms: _169  and  _170
REMARK   64  A    between atoms: _169  and  _172
REMARK   65  A    between atoms: _172  and  _173
REMARK   66  A    between atoms: _179  and  _181
REMARK   67  A    between atoms: _181  and  _182
REMARK   68  A    between atoms: _184  and  _186
REMARK   69  A    between atoms: _186  and  _187
REMARK   70  A    between atoms: _186  and  _189
REMARK   71  A    between atoms: _189  and  _190
REMARK   72  A    between atoms: _192  and  _194
REMARK   73  A    between atoms: _194  and  _195
REMARK   74  A    between atoms: _194  and  _197
REMARK   75  A    between atoms: _197  and  _198
REMARK   76  A    between atoms: _201  and  _203
REMARK   77  A    between atoms: _203  and  _204
REMARK   78  A    between atoms: _207  and  _209
REMARK   79  A    between atoms: _209  and  _210
REMARK   80  A    between atoms: _212  and  _214
REMARK   81  A    between atoms: _214  and  _215
REMARK   82  A    between atoms: _214  and  _217
REMARK   83  A    between atoms: _217  and  _218
REMARK   84  A    between atoms: _224  and  _226
REMARK   85  A    between atoms: _226  and  _227
REMARK   86  A    between atoms: _226  and  _229
REMARK   87  A    between atoms: _229  and  _230
REMARK   88  A    between atoms: _240  and  _242
REMARK   89  A    between atoms: _242  and  _243
REMARK   90  A    between atoms: _242  and  _245
REMARK   91  A    between atoms: _245  and  _246
REMARK   92  A    between atoms: _246  and  _247
REMARK   93  A    between atoms: _252  and  _254
REMARK   94  A    between atoms: _254  and  _255
REMARK   95  A    between atoms: _254  and  _257
REMARK   96  A    between atoms: _257  and  _258
REMARK   97  A    between atoms: _261  and  _263
REMARK   98  A    between atoms: _263  and  _264
REMARK   99  A    between atoms: _263  and  _266
REMARK  100  A    between atoms: _266  and  _267
REMARK  101  A    between atoms: _270  and  _272
REMARK  102  A    between atoms: _272  and  _273
REMARK  103  A    between atoms: _272  and  _275
REMARK  104  A    between atoms: _275  and  _276
REMARK  105  A    between atoms: _281  and  _283
REMARK  106  A    between atoms: _283  and  _284
REMARK  107  A    between atoms: _283  and  _286
REMARK  108  A    between atoms: _286  and  _287
REMARK  109  A    between atoms: _297  and  _299
REMARK  110  A    between atoms: _299  and  _300
REMARK  111  A    between atoms: _299  and  _302
REMARK  112  A    between atoms: _302  and  _303
REMARK  113  A    between atoms: _308  and  _309
REMARK  114  A    between atoms: _311  and  _313
REMARK  115  A    between atoms: _313  and  _314
REMARK  116  A    between atoms: _313  and  _316
REMARK  117  A    between atoms: _316  and  _317
REMARK  118  A    between atoms: _322  and  _324
REMARK  119  A    between atoms: _324  and  _325
REMARK  120  A    between atoms: _324  and  _327
REMARK  121  A    between atoms: _327  and  _328
REMARK                            x       y       z     vdW  Elec       q    Type
REMARK                         _______ _______ _______ _____ _____    ______ ____
ROOT
ATOM      1  C   THR A   3       8.323  38.747  34.557  0.00  0.00    +0.243 C 
ATOM      2  N   ALA A   4       9.295  38.405  35.377  0.00  0.00    -0.297 N 
ATOM      3  H   ALA A   4      10.268  38.632  35.090  0.00  0.00    +0.150 HD
ATOM      4  O   THR A   3       7.160  38.322  34.741  0.00  0.00    -0.273 OA
ENDROOT
BRANCH   2   5
ATOM      5  CA  ALA A   4       9.109  37.729  36.663  0.00  0.00    +0.149 C 
ATOM      6  CB  ALA A   4      10.503  37.560  37.226  0.00  0.00    +0.031 C 
BRANCH   5   7
ATOM      7  C   ALA A   4       8.183  38.544  37.571  0.00  0.00    +0.241 C 
ATOM      8  N   GLY A   5       7.196  37.929  38.255  0.00  0.00    -0.295 N 
ATOM      9  H   GLY A   5       7.137  36.891  38.244  0.00  0.00    +0.150 HD
ATOM     10  O   ALA A   4       8.374  39.777  37.530  0.00  0.00    -0.273 OA
BRANCH   8  11
ATOM     11  CA  GLY A   5       6.226  38.681  38.997  0.00  0.00    +0.176 C 
BRANCH  11  12
ATOM     12  C   GLY A   5       6.621  39.028  40.438  0.00  0.00    +0.243 C 
ATOM     13  N   PHE A   6       7.272  38.171  41.159  0.00  0.00    -0.298 N 
ATOM     14  H   PHE A   6       7.490  37.244  40.741  0.00  0.00    +0.150 HD
ATOM     15  O   GLY A   5       6.102  40.037  40.934  0.00  0.00    -0.273 OA
BRANCH  13  16
ATOM     16  CA  PHE A   6       7.713  38.431  42.513  0.00  0.00    +0.141 C 
BRANCH  16  17
ATOM     17  C   PHE A   6       6.573  38.637  43.486  0.00  0.00    +0.227 C 
ATOM     18  O   PHE A   6       6.762  39.406  44.419  0.00  0.00    -0.286 OA
ENDBRANCH  16  17
BRANCH  16  19
ATOM     19  CB  PHE A   6       8.678  39.638  42.683  0.00  0.00    +0.054 C 
BRANCH  19  20
ATOM     20  CG  PHE A   6      10.003  39.219  42.098  0.00  0.00    -0.020 A 
ATOM     21  CD2 PHE A   6      10.829  38.380  42.806  0.00  0.00    -0.004 A 
ATOM     22  CE2 PHE A   6      12.055  37.986  42.290  0.00  0.00    -0.000 A 
ATOM     23  CZ  PHE A   6      12.433  38.419  41.020  0.00  0.00    -0.000 A 
ATOM     24  CE1 PHE A   6      11.584  39.257  40.315  0.00  0.00    -0.000 A 
ATOM     25  CD1 PHE A   6      10.369  39.660  40.817  0.00  0.00    -0.004 A 
ENDBRANCH  19  20
ENDBRANCH  16  19
ENDBRANCH  13  16
ENDBRANCH  11  12
ENDBRANCH   8  11
ENDBRANCH   5   7
ENDBRANCH   2   5
BRANCH   1  26
ATOM     26  CA  THR A   3       8.540  39.466  33.227  0.00  0.00    +0.176 C 
BRANCH  26  28
ATOM     27  C   SER A   2       7.662  38.756  31.006  0.00  0.00    +0.243 C 
ATOM     28  N   THR A   3       7.522  38.968  32.313  0.00  0.00    -0.295 N 
ATOM     29  H   THR A   3       6.590  38.756  32.723  0.00  0.00    +0.150 HD
ATOM     30  O   SER A   2       8.631  39.172  30.350  0.00  0.00    -0.273 OA
BRANCH  27  31
ATOM     31  CA  SER A   2       6.579  37.951  30.284  0.00  0.00    +0.178 C 
BRANCH  31  33
ATOM     32  C   GLY A   1       5.516  38.284  28.092  0.00  0.00    +0.240 C 
ATOM     33  N   SER A   2       6.571  38.231  28.868  0.00  0.00    -0.295 N 
ATOM     34  H   SER A   2       7.493  38.408  28.420  0.00  0.00    +0.150 HD
ATOM     35  O   GLY A   1       4.358  38.141  28.451  0.00  0.00    -0.274 OA
BRANCH  32  36
ATOM     36  CA  GLY A   1       5.714  38.386  26.576  0.00  0.00    +0.169 C 
BRANCH  36  37
ATOM     37  N   GLY A   1       4.423  38.139  25.979  0.00  0.00    -0.236 NA
ATOM     38  H   GLY A   1       3.603  38.069  26.615  0.00  0.00    +0.142 HD
ENDBRANCH  36  37
ENDBRANCH  32  36
ENDBRANCH  31  33
BRANCH  31  39
ATOM     39  CB  SER A   2       6.965  36.457  30.397  0.00  0.00    +0.166 C 
BRANCH  39  40
ATOM     40  OG  SER A   2       5.892  35.626  30.690  0.00  0.00    -0.380 OA
ATOM     41  H   SER A   2       5.212  35.703  29.975  0.00  0.00    +0.211 HD
ENDBRANCH  39  40
ENDBRANCH  31  39
ENDBRANCH  27  31
ENDBRANCH  26  28
BRANCH  26  42
ATOM     42  CB  THR A   3       8.599  40.965  33.393  0.00  0.00    +0.137 C 
ATOM     43  CG2 THR A   3       8.723  41.806  32.096  0.00  0.00    +0.034 C 
BRANCH  42  44
ATOM     44  OG1 THR A   3       7.475  41.505  34.118  0.00  0.00    -0.382 OA
ATOM     45  HG1 THR A   3       7.573  42.487  34.192  0.00  0.00    +0.210 HD
ENDBRANCH  42  44
ENDBRANCH  26  42
ENDBRANCH   1  26
TORSDOF 18
REMARK  Name = ../refined-set-2016/1ai7/1ai7_pocket.pdb
REMARK  121 active torsions:
REMARK  status: ('A' for Active; 'I' for Inactive)
REMARK    1  A    between atoms: _1  and  _3
REMARK    2  A    between atoms: _3  and  _4
REMARK    3  A    between atoms: _3  and  _6
REMARK    4  A    between atoms: _6  and  _7
REMARK    5  A    between atoms: _10  and  _12
REMARK    6  A    between atoms: _12  and  _13
REMARK    7  A    between atoms: _12  and  _15
REMARK    8  A    between atoms: _15  and  _16
REMARK    9  A    between atoms: _16  and  _17
REMARK   10  A    between atoms: _19  and  _21
REMARK   11  A    between atoms: _21  and  _22
REMARK   12  A    between atoms: _21  and  _24
REMARK   13  A    between atoms: _24  and  _25
REMARK   14  A    between atoms: _25  and  _26
REMARK   15  A    between atoms: _26  and  _27
REMARK   16  A    between atoms: _36  and  _38
REMARK   17  A    between atoms: _38  and  _39
REMARK   18  A    between atoms: _38  and  _41
REMARK   19  A    between atoms: _41  and  _42
REMARK   20  A    between atoms: _48  and  _50
REMARK   21  A    between atoms: _50  and  _51
REMARK   22  A    between atoms: _50  and  _53
REMARK   23  A    between atoms: _53  and  _54
REMARK   24  A    between atoms: _56  and  _60
REMARK   25  A    between atoms: _60  and  _61
REMARK   26  A    between atoms: _60  and  _63
REMARK   27  A    between atoms: _63  and  _64
REMARK   28  A    between atoms: _66  and  _68
REMARK   29  A    between atoms: _68  and  _69
REMARK   30  A    between atoms: _68  and  _71
REMARK   31  A    between atoms: _71  and  _72
REMARK   32  A    between atoms: _77  and  _79
REMARK   33  A    between atoms: _79  and  _80
REMARK   34  A    between atoms: _79  and  _82
REMARK   35  A    between atoms: _82  and  _83
REMARK   36  A    between atoms: _88  and  _90
REMARK   37  A    between atoms: _90  and  _91
REMARK   38  A    between atoms: _94  and  _95
REMARK   39  A    between atoms: _100  and  _102
REMARK   40  A    between atoms: _102  and  _103
REMARK   41  A    between atoms: _102  and  _105
REMARK   42  A    between atoms: _105  and  _106
REMARK   43  A    between atoms: _106  and  _107
REMARK   44  A    between atoms: _112  and  _114
REMARK   45  A    between atoms: _114  and  _115
REMARK   46  A    between atoms: _114  and  _117
REMARK   47  A    between atoms: _117  and  _118
REMARK   48  A    between atoms: _124  and  _126
REMARK   49  A    between atoms: _126  and  _127
REMARK   50  A    between atoms: _126  and  _129
REMARK   51  A    between atoms: _129  and  _130
REMARK   52  A    between atoms: _135  and  _136
REMARK   53  A    between atoms: _139  and  _140
REMARK   54  A    between atoms: _145  and  _147
REMARK   55  A    between atoms: _147  and  _148
REMARK   56  A    between atoms: _147  and  _150
REMARK   57  A    between atoms: _150  and  _151
REMARK   58  A    between atoms: _156  and  _157
REMARK   59  A    between atoms: _159  and  _161
REMARK   60  A    between atoms: _161  and  _162
REMARK   61  A    between atoms: _161  and  _164
REMARK   62  A    between atoms: _167  and  _169
REMARK   63  A    between atoms: _169  and  _170
REMARK   64  A    between atoms: _169  and  _172
REMARK   65  A    between atoms: _172  and  _173
REMARK   66  A    between atoms: _179  and  _181
REMARK   67  A    between atoms: _181  and  _182
REMARK   68  A    between atoms: _184  and  _186
REMARK   69  A    between atoms: _186  and  _187
REMARK   70  A    between atoms: _186  and  _189
REMARK   71  A    between atoms: _189  and  _190
REMARK   72  A    between atoms: _192  and  _194
REMARK   73  A    between atoms: _194  and  _195
REMARK   74  A    between atoms: _194  and  _197
REMARK   75  A    between atoms: _197  and  _198
REMARK   76  A    between atoms: _201  and  _203
REMARK   77  A    between atoms: _203  and  _204
REMARK   78  A    between atoms: _207  and  _209
REMARK   79  A    between atoms: _209  and  _210
REMARK   80  A    between atoms: _212  and  _214
REMARK   81  A    between atoms: _214  and  _215
REMARK   82  A    between atoms: _214  and  _217
REMARK   83  A    between atoms: _217  and  _218
REMARK   84  A    between atoms: _224  and  _226
REMARK   85  A    between atoms: _226  and  _227
REMARK   86  A    between atoms: _226  and  _229
REMARK   87  A    between atoms: _229  and  _230
REMARK   88  A    between atoms: _240  and  _242
REMARK   89  A    between atoms: _242  and  _243
REMARK   90  A    between atoms: _242  and  _245
REMARK   91  A    between atoms: _245  and  _246
REMARK   92  A    between atoms: _246  and  _247
REMARK   93  A    between atoms: _252  and  _254
REMARK   94  A    between atoms: _254  and  _255
REMARK   95  A    between atoms: _254  and  _257
REMARK   96  A    between atoms: _257  and  _258
REMARK   97  A    between atoms: _261  and  _263
REMARK   98  A    between atoms: _263  and  _264
REMARK   99  A    between atoms: _263  and  _266
REMARK  100  A    between atoms: _266  and  _267
REMARK  101  A    between atoms: _270  and  _272
REMARK  102  A    between atoms: _272  and  _273
REMARK  103  A    between atoms: _272  and  _275
REMARK  104  A    between atoms: _275  and  _276
REMARK  105  A    between atoms: _281  and  _283
REMARK  106  A    between atoms: _283  and  _284
REMARK  107  A    between atoms: _283  and  _286
REMARK  108  A    between atoms: _286  and  _287
REMARK  109  A    between atoms: _297  and  _299
REMARK  110  A    between atoms: _299  and  _300
REMARK  111  A    between atoms: _299  and  _302
REMARK  112  A    between atoms: _302  and  _303
REMARK  113  A    between atoms: _308  and  _309
REMARK  114  A    between atoms: _311  and  _313
REMARK  115  A    between atoms: _313  and  _314
REMARK  116  A    between atoms: _313  and  _316
REMARK  117  A    between atoms: _316  and  _317
REMARK  118  A    between atoms: _322  and  _324
REMARK  119  A    between atoms: _324  and  _325
REMARK  120  A    between atoms: _324  and  _327
REMARK  121  A    between atoms: _327  and  _328
REMARK                            x       y       z     vdW  Elec       q    Type
REMARK                         _______ _______ _______ _____ _____    ______ ____
ROOT
ATOM      1  CG  TRP A   1       4.192  29.840  29.093  0.00  0.00    -0.002 A 
ATOM      2  CD2 TRP A   1       4.789  30.267  30.311  0.00  0.00    +0.013 A 
ATOM      3  CE3 TRP A   1       4.924  29.675  31.572  0.00  0.00    +0.001 A 
ATOM      4  CZ3 TRP A   1       5.571  30.378  32.594  0.00  0.00    +0.000 A 
ATOM      5  CH2 TRP A   1       6.012  31.683  32.337  0.00  0.00    +0.001 A 
ATOM      6  CZ2 TRP A   1       5.792  32.349  31.153  0.00  0.00    +0.017 A 
ATOM      7  CE2 TRP A   1       5.173  31.608  30.141  0.00  0.00    +0.056 A 
ATOM      8  NE1 TRP A   1       4.858  31.969  28.843  0.00  0.00    -0.352 N 
ATOM      9  HE1 TRP A   1       5.022  32.902  28.413  0.00  0.00    +0.166 HD
ATOM     10  CD1 TRP A   1       4.298  30.897  28.227  0.00  0.00    +0.068 A 
ENDROOT
BRANCH   1  11
ATOM     11  CB  TRP A   1       3.577  28.495  28.853  0.00  0.00    +0.053 C 
BRANCH  11  12
ATOM     12  CA  TRP A   1       2.202  28.549  28.174  0.00  0.00    +0.137 C 
BRANCH  12  13
ATOM     13  N   TRP A   1       1.295  27.727  28.969  0.00  0.00    -0.239 NA
ATOM     14  H   TRP A   1       1.693  27.124  29.717  0.00  0.00    +0.142 HD
ENDBRANCH  12  13
BRANCH  12  15
ATOM     15  C   TRP A   1       2.262  28.055  26.716  0.00  0.00    +0.224 C 
ATOM     16  O   TRP A   1       2.490  28.813  25.757  0.00  0.00    -0.287 OA
ENDBRANCH  12  15
ENDBRANCH  11  12
ENDBRANCH   1  11
TORSDOF 4
REMARK  Name = ../refined-set-2016/1ai7/1ai7_pocket.pdb
REMARK  121 active torsions:
REMARK  status: ('A' for Active; 'I' for Inactive)
REMARK    1  A    between atoms: _1  and  _3
REMARK    2  A    between atoms: _3  and  _4
REMARK    3  A    between atoms: _3  and  _6
REMARK    4  A    between atoms: _6  and  _7
REMARK    5  A    between atoms: _10  and  _12
REMARK    6  A    between atoms: _12  and  _13
REMARK    7  A    between atoms: _12  and  _15
REMARK    8  A    between atoms: _15  and  _16
REMARK    9  A    between atoms: _16  and  _17
REMARK   10  A    between atoms: _19  and  _21
REMARK   11  A    between atoms: _21  and  _22
REMARK   12  A    between atoms: _21  and  _24
REMARK   13  A    between atoms: _24  and  _25
REMARK   14  A    between atoms: _25  and  _26
REMARK   15  A    between atoms: _26  and  _27
REMARK   16  A    between atoms: _36  and  _38
REMARK   17  A    between atoms: _38  and  _39
REMARK   18  A    between atoms: _38  and  _41
REMARK   19  A    between atoms: _41  and  _42
REMARK   20  A    between atoms: _48  and  _50
REMARK   21  A    between atoms: _50  and  _51
REMARK   22  A    between atoms: _50  and  _53
REMARK   23  A    between atoms: _53  and  _54
REMARK   24  A    between atoms: _56  and  _60
REMARK   25  A    between atoms: _60  and  _61
REMARK   26  A    between atoms: _60  and  _63
REMARK   27  A    between atoms: _63  and  _64
REMARK   28  A    between atoms: _66  and  _68
REMARK   29  A    between atoms: _68  and  _69
REMARK   30  A    between atoms: _68  and  _71
REMARK   31  A    between atoms: _71  and  _72
REMARK   32  A    between atoms: _77  and  _79
REMARK   33  A    between atoms: _79  and  _80
REMARK   34  A    between atoms: _79  and  _82
REMARK   35  A    between atoms: _82  and  _83
REMARK   36  A    between atoms: _88  and  _90
REMARK   37  A    between atoms: _90  and  _91
REMARK   38  A    between atoms: _94  and  _95
REMARK   39  A    between atoms: _100  and  _102
REMARK   40  A    between atoms: _102  and  _103
REMARK   41  A    between atoms: _102  and  _105
REMARK   42  A    between atoms: _105  and  _106
REMARK   43  A    between atoms: _106  and  _107
REMARK   44  A    between atoms: _112  and  _114
REMARK   45  A    between atoms: _114  and  _115
REMARK   46  A    between atoms: _114  and  _117
REMARK   47  A    between atoms: _117  and  _118
REMARK   48  A    between atoms: _124  and  _126
REMARK   49  A    between atoms: _126  and  _127
REMARK   50  A    between atoms: _126  and  _129
REMARK   51  A    between atoms: _129  and  _130
REMARK   52  A    between atoms: _135  and  _136
REMARK   53  A    between atoms: _139  and  _140
REMARK   54  A    between atoms: _145  and  _147
REMARK   55  A    between atoms: _147  and  _148
REMARK   56  A    between atoms: _147  and  _150
REMARK   57  A    between atoms: _150  and  _151
REMARK   58  A    between atoms: _156  and  _157
REMARK   59  A    between atoms: _159  and  _161
REMARK   60  A    between atoms: _161  and  _162
REMARK   61  A    between atoms: _161  and  _164
REMARK   62  A    between atoms: _167  and  _169
REMARK   63  A    between atoms: _169  and  _170
REMARK   64  A    between atoms: _169  and  _172
REMARK   65  A    between atoms: _172  and  _173
REMARK   66  A    between atoms: _179  and  _181
REMARK   67  A    between atoms: _181  and  _182
REMARK   68  A    between atoms: _184  and  _186
REMARK   69  A    between atoms: _186  and  _187
REMARK   70  A    between atoms: _186  and  _189
REMARK   71  A    between atoms: _189  and  _190
REMARK   72  A    between atoms: _192  and  _194
REMARK   73  A    between atoms: _194  and  _195
REMARK   74  A    between atoms: _194  and  _197
REMARK   75  A    between atoms: _197  and  _198
REMARK   76  A    between atoms: _201  and  _203
REMARK   77  A    between atoms: _203  and  _204
REMARK   78  A    between atoms: _207  and  _209
REMARK   79  A    between atoms: _209  and  _210
REMARK   80  A    between atoms: _212  and  _214
REMARK   81  A    between atoms: _214  and  _215
REMARK   82  A    between atoms: _214  and  _217
REMARK   83  A    between atoms: _217  and  _218
REMARK   84  A    between atoms: _224  and  _226
REMARK   85  A    between atoms: _226  and  _227
REMARK   86  A    between atoms: _226  and  _229
REMARK   87  A    between atoms: _229  and  _230
REMARK   88  A    between atoms: _240  and  _242
REMARK   89  A    between atoms: _242  and  _243
REMARK   90  A    between atoms: _242  and  _245
REMARK   91  A    between atoms: _245  and  _246
REMARK   92  A    between atoms: _246  and  _247
REMARK   93  A    between atoms: _252  and  _254
REMARK   94  A    between atoms: _254  and  _255
REMARK   95  A    between atoms: _254  and  _257
REMARK   96  A    between atoms: _257  and  _258
REMARK   97  A    between atoms: _261  and  _263
REMARK   98  A    between atoms: _263  and  _264
REMARK   99  A    between atoms: _263  and  _266
REMARK  100  A    between atoms: _266  and  _267
REMARK  101  A    between atoms: _270  and  _272
REMARK  102  A    between atoms: _272  and  _273
REMARK  103  A    between atoms: _272  and  _275
REMARK  104  A    between atoms: _275  and  _276
REMARK  105  A    between atoms: _281  and  _283
REMARK  106  A    between atoms: _283  and  _284
REMARK  107  A    between atoms: _283  and  _286
REMARK  108  A    between atoms: _286  and  _287
REMARK  109  A    between atoms: _297  and  _299
REMARK  110  A    between atoms: _299  and  _300
REMARK  111  A    between atoms: _299  and  _302
REMARK  112  A    between atoms: _302  and  _303
REMARK  113  A    between atoms: _308  and  _309
REMARK  114  A    between atoms: _311  and  _313
REMARK  115  A    between atoms: _313  and  _314
REMARK  116  A    between atoms: _313  and  _316
REMARK  117  A    between atoms: _316  and  _317
REMARK  118  A    between atoms: _322  and  _324
REMARK  119  A    between atoms: _324  and  _325
REMARK  120  A    between atoms: _324  and  _327
REMARK  121  A    between atoms: _327  and  _328
REMARK                            x       y       z     vdW  Elec       q    Type
REMARK                         _______ _______ _______ _____ _____    ______ ____
ROOT
ATOM      1  CB  GLN A   1       0.048  30.570  33.787  0.00  0.00    +0.035 C 
ENDROOT
BRANCH   1   2
ATOM      2  CA  GLN A   1      -0.506  29.440  34.660  0.00  0.00    +0.134 C 
BRANCH   2   3
ATOM      3  N   GLN A   1      -1.928  29.298  34.362  0.00  0.00    -0.239 NA
ATOM      4  H   GLN A   1      -2.437  30.057  33.866  0.00  0.00    +0.142 HD
ENDBRANCH   2   3
BRANCH   2   5
ATOM      5  C   GLN A   1      -0.253  29.755  36.118  0.00  0.00    +0.224 C 
ATOM      6  O   GLN A   1      -0.751  30.775  36.657  0.00  0.00    -0.287 OA
ENDBRANCH   2   5
ENDBRANCH   1   2
BRANCH   1   7
ATOM      7  CG  GLN A   1       1.551  30.423  33.509  0.00  0.00    +0.087 C 
BRANCH   7   8
ATOM      8  CD  GLN A   1       2.323  30.544  34.806  0.00  0.00    +0.219 C 
ATOM      9  OE1 GLN A   1       2.892  29.600  35.329  0.00  0.00    -0.275 OA
ATOM     10  NE2 GLN A   1       2.333  31.790  35.319  0.00  0.00    -0.329 N 
ATOM     11 HE21 GLN A   1       2.844  31.984  36.204  0.00  0.00    +0.145 HD
ATOM     12 HE22 GLN A   1       1.830  32.558  34.830  0.00  0.00    +0.145 HD
ENDBRANCH   7   8
ENDBRANCH   1   7
TORSDOF 5
REMARK  Name = ../refined-set-2016/1ai7/1ai7_pocket.pdb
REMARK  121 active torsions:
REMARK  status: ('A' for Active; 'I' for Inactive)
REMARK    1  A    between atoms: _1  and  _3
REMARK    2  A    between atoms: _3  and  _4
REMARK    3  A    between atoms: _3  and  _6
REMARK    4  A    between atoms: _6  and  _7
REMARK    5  A    between atoms: _10  and  _12
REMARK    6  A    between atoms: _12  and  _13
REMARK    7  A    between atoms: _12  and  _15
REMARK    8  A    between atoms: _15  and  _16
REMARK    9  A    between atoms: _16  and  _17
REMARK   10  A    between atoms: _19  and  _21
REMARK   11  A    between atoms: _21  and  _22
REMARK   12  A    between atoms: _21  and  _24
REMARK   13  A    between atoms: _24  and  _25
REMARK   14  A    between atoms: _25  and  _26
REMARK   15  A    between atoms: _26  and  _27
REMARK   16  A    between atoms: _36  and  _38
REMARK   17  A    between atoms: _38  and  _39
REMARK   18  A    between atoms: _38  and  _41
REMARK   19  A    between atoms: _41  and  _42
REMARK   20  A    between atoms: _48  and  _50
REMARK   21  A    between atoms: _50  and  _51
REMARK   22  A    between atoms: _50  and  _53
REMARK   23  A    between atoms: _53  and  _54
REMARK   24  A    between atoms: _56  and  _60
REMARK   25  A    between atoms: _60  and  _61
REMARK   26  A    between atoms: _60  and  _63
REMARK   27  A    between atoms: _63  and  _64
REMARK   28  A    between atoms: _66  and  _68
REMARK   29  A    between atoms: _68  and  _69
REMARK   30  A    between atoms: _68  and  _71
REMARK   31  A    between atoms: _71  and  _72
REMARK   32  A    between atoms: _77  and  _79
REMARK   33  A    between atoms: _79  and  _80
REMARK   34  A    between atoms: _79  and  _82
REMARK   35  A    between atoms: _82  and  _83
REMARK   36  A    between atoms: _88  and  _90
REMARK   37  A    between atoms: _90  and  _91
REMARK   38  A    between atoms: _94  and  _95
REMARK   39  A    between atoms: _100  and  _102
REMARK   40  A    between atoms: _102  and  _103
REMARK   41  A    between atoms: _102  and  _105
REMARK   42  A    between atoms: _105  and  _106
REMARK   43  A    between atoms: _106  and  _107
REMARK   44  A    between atoms: _112  and  _114
REMARK   45  A    between atoms: _114  and  _115
REMARK   46  A    between atoms: _114  and  _117
REMARK   47  A    between atoms: _117  and  _118
REMARK   48  A    between atoms: _124  and  _126
REMARK   49  A    between atoms: _126  and  _127
REMARK   50  A    between atoms: _126  and  _129
REMARK   51  A    between atoms: _129  and  _130
REMARK   52  A    between atoms: _135  and  _136
REMARK   53  A    between atoms: _139  and  _140
REMARK   54  A    between atoms: _145  and  _147
REMARK   55  A    between atoms: _147  and  _148
REMARK   56  A    between atoms: _147  and  _150
REMARK   57  A    between atoms: _150  and  _151
REMARK   58  A    between atoms: _156  and  _157
REMARK   59  A    between atoms: _159  and  _161
REMARK   60  A    between atoms: _161  and  _162
REMARK   61  A    between atoms: _161  and  _164
REMARK   62  A    between atoms: _167  and  _169
REMARK   63  A    between atoms: _169  and  _170
REMARK   64  A    between atoms: _169  and  _172
REMARK   65  A    between atoms: _172  and  _173
REMARK   66  A    between atoms: _179  and  _181
REMARK   67  A    between atoms: _181  and  _182
REMARK   68  A    between atoms: _184  and  _186
REMARK   69  A    between atoms: _186  and  _187
REMARK   70  A    between atoms: _186  and  _189
REMARK   71  A    between atoms: _189  and  _190
REMARK   72  A    between atoms: _192  and  _194
REMARK   73  A    between atoms: _194  and  _195
REMARK   74  A    between atoms: _194  and  _197
REMARK   75  A    between atoms: _197  and  _198
REMARK   76  A    between atoms: _201  and  _203
REMARK   77  A    between atoms: _203  and  _204
REMARK   78  A    between atoms: _207  and  _209
REMARK   79  A    between atoms: _209  and  _210
REMARK   80  A    between atoms: _212  and  _214
REMARK   81  A    between atoms: _214  and  _215
REMARK   82  A    between atoms: _214  and  _217
REMARK   83  A    between atoms: _217  and  _218
REMARK   84  A    between atoms: _224  and  _226
REMARK   85  A    between atoms: _226  and  _227
REMARK   86  A    between atoms: _226  and  _229
REMARK   87  A    between atoms: _229  and  _230
REMARK   88  A    between atoms: _240  and  _242
REMARK   89  A    between atoms: _242  and  _243
REMARK   90  A    between atoms: _242  and  _245
REMARK   91  A    between atoms: _245  and  _246
REMARK   92  A    between atoms: _246  and  _247
REMARK   93  A    between atoms: _252  and  _254
REMARK   94  A    between atoms: _254  and  _255
REMARK   95  A    between atoms: _254  and  _257
REMARK   96  A    between atoms: _257  and  _258
REMARK   97  A    between atoms: _261  and  _263
REMARK   98  A    between atoms: _263  and  _264
REMARK   99  A    between atoms: _263  and  _266
REMARK  100  A    between atoms: _266  and  _267
REMARK  101  A    between atoms: _270  and  _272
REMARK  102  A    between atoms: _272  and  _273
REMARK  103  A    between atoms: _272  and  _275
REMARK  104  A    between atoms: _275  and  _276
REMARK  105  A    between atoms: _281  and  _283
REMARK  106  A    between atoms: _283  and  _284
REMARK  107  A    between atoms: _283  and  _286
REMARK  108  A    between atoms: _286  and  _287
REMARK  109  A    between atoms: _297  and  _299
REMARK  110  A    between atoms: _299  and  _300
REMARK  111  A    between atoms: _299  and  _302
REMARK  112  A    between atoms: _302  and  _303
REMARK  113  A    between atoms: _308  and  _309
REMARK  114  A    between atoms: _311  and  _313
REMARK  115  A    between atoms: _313  and  _314
REMARK  116  A    between atoms: _313  and  _316
REMARK  117  A    between atoms: _316  and  _317
REMARK  118  A    between atoms: _322  and  _324
REMARK  119  A    between atoms: _324  and  _325
REMARK  120  A    between atoms: _324  and  _327
REMARK  121  A    between atoms: _327  and  _328
REMARK                            x       y       z     vdW  Elec       q    Type
REMARK                         _______ _______ _______ _____ _____    ______ ____
ROOT
ATOM      1  C   ASN A   3       3.465  38.458  33.161  0.00  0.00    +0.241 C 
ATOM      2  N   TRP A   4       2.268  38.491  32.598  0.00  0.00    -0.297 N 
ATOM      3  H   TRP A   4       1.465  38.802  33.181  0.00  0.00    +0.150 HD
ATOM      4  O   ASN A   3       4.468  38.202  32.482  0.00  0.00    -0.273 OA
ENDROOT
BRANCH   2   5
ATOM      5  CA  TRP A   4       2.004  38.121  31.219  0.00  0.00    +0.153 C 
BRANCH   5   6
ATOM      6  C   TRP A   4       1.473  39.337  30.491  0.00  0.00    +0.241 C 
ATOM      7  O   TRP A   4       0.809  40.177  31.117  0.00  0.00    -0.273 OA
ATOM      8  N   TYR A   5       1.822  39.524  29.226  0.00  0.00    -0.298 N 
ATOM      9  H   TYR A   5       2.388  38.795  28.747  0.00  0.00    +0.150 HD
BRANCH   8  10
ATOM     10  CA  TYR A   5       1.439  40.715  28.487  0.00  0.00    +0.141 C 
BRANCH  10  11
ATOM     11  C   TYR A   5       0.872  40.285  27.132  0.00  0.00    +0.227 C 
ATOM     12  O   TYR A   5       1.373  39.334  26.525  0.00  0.00    -0.286 OA
ENDBRANCH  10  11
BRANCH  10  13
ATOM     13  CB  TYR A   5       2.627  41.696  28.203  0.00  0.00    +0.054 C 
BRANCH  13  14
ATOM     14  CG  TYR A   5       3.379  42.083  29.463  0.00  0.00    -0.020 A 
ATOM     15  CD2 TYR A   5       3.091  43.252  30.164  0.00  0.00    -0.001 A 
ATOM     16  CE2 TYR A   5       3.712  43.538  31.356  0.00  0.00    +0.036 A 
ATOM     17  CZ  TYR A   5       4.591  42.640  31.899  0.00  0.00    +0.134 A 
ATOM     18  CE1 TYR A   5       4.908  41.469  31.223  0.00  0.00    +0.036 A 
ATOM     19  CD1 TYR A   5       4.331  41.229  30.003  0.00  0.00    -0.001 A 
BRANCH  17  20
ATOM     20  OH  TYR A   5       5.242  42.823  33.093  0.00  0.00    -0.506 OA
ATOM     21  HH  TYR A   5       5.822  42.041  33.275  0.00  0.00    +0.292 HD
ENDBRANCH  17  20
ENDBRANCH  13  14
ENDBRANCH  10  13
ENDBRANCH   8  10
ENDBRANCH   5   6
BRANCH   5  22
ATOM     22  CB  TRP A   4       0.979  36.997  31.143  0.00  0.00    +0.057 C 
BRANCH  22  23
ATOM     23  CG  TRP A   4       1.460  35.591  31.105  0.00  0.00    -0.002 A 
ATOM     24  CD1 TRP A   4       2.633  35.118  31.589  0.00  0.00    +0.068 A 
ATOM     25  NE1 TRP A   4       2.754  33.765  31.428  0.00  0.00    -0.352 N 
ATOM     26  HE1 TRP A   4       3.551  33.173  31.738  0.00  0.00    +0.166 HD
ATOM     27  CE2 TRP A   4       1.624  33.340  30.780  0.00  0.00    +0.056 A 
ATOM     28  CZ2 TRP A   4       1.282  32.039  30.374  0.00  0.00    +0.017 A 
ATOM     29  CH2 TRP A   4       0.085  31.899  29.736  0.00  0.00    +0.001 A 
ATOM     30  CZ3 TRP A   4      -0.742  32.994  29.467  0.00  0.00    +0.000 A 
ATOM     31  CE3 TRP A   4      -0.449  34.265  29.923  0.00  0.00    +0.001 A 
ATOM     32  CD2 TRP A   4       0.784  34.448  30.585  0.00  0.00    +0.013 A 
ENDBRANCH  22  23
ENDBRANCH   5  22
ENDBRANCH   2   5
BRANCH   1  33
ATOM     33  CA  ASN A   3       3.593  38.874  34.645  0.00  0.00    +0.158 C 
BRANCH  33  36
ATOM     34  C   ILE A   2       3.848  36.755  35.834  0.00  0.00    +0.241 C 
ATOM     35  O   ILE A   2       2.654  36.540  35.700  0.00  0.00    -0.273 OA
ATOM     36  N   ASN A   3       4.376  37.853  35.311  0.00  0.00    -0.297 N 
ATOM     37  H   ASN A   3       5.405  37.988  35.382  0.00  0.00    +0.150 HD
BRANCH  34  38
ATOM     38  CA  ILE A   2       4.788  35.688  36.365  0.00  0.00    +0.148 C 
BRANCH  38  41
ATOM     39  C   THR A   1       4.950  34.867  38.699  0.00  0.00    +0.241 C 
ATOM     40  O   THR A   1       6.116  35.217  38.746  0.00  0.00    -0.274 OA
ATOM     41  N   ILE A   2       4.288  35.104  37.567  0.00  0.00    -0.297 N 
ATOM     42  H   ILE A   2       3.285  34.830  37.559  0.00  0.00    +0.150 HD
BRANCH  39  43
ATOM     43  CA  THR A   1       4.258  34.153  39.858  0.00  0.00    +0.172 C 
BRANCH  43  44
ATOM     44  CB  THR A   1       4.649  34.716  41.243  0.00  0.00    +0.135 C 
ATOM     45  CG2 THR A   1       6.083  34.474  41.709  0.00  0.00    +0.034 C 
BRANCH  44  46
ATOM     46  OG1 THR A   1       4.489  36.142  41.181  0.00  0.00    -0.383 OA
ATOM     47  HG1 THR A   1       3.546  36.358  40.970  0.00  0.00    +0.210 HD
ENDBRANCH  44  46
ENDBRANCH  43  44
BRANCH  43  48
ATOM     48  N   THR A   1       4.404  32.687  39.800  0.00  0.00    -0.236 NA
ATOM     49  H   THR A   1       5.000  32.173  40.480  0.00  0.00    +0.142 HD
ENDBRANCH  43  48
ENDBRANCH  39  43
ENDBRANCH  38  41
BRANCH  38  50
ATOM     50  CB  ILE A   2       4.983  34.645  35.211  0.00  0.00    +0.027 C 
ATOM     51  CG2 ILE A   2       5.685  35.208  33.973  0.00  0.00    +0.002 C 
BRANCH  50  52
ATOM     52  CG1 ILE A   2       5.671  33.360  35.590  0.00  0.00    +0.002 C 
ATOM     53  CD1 ILE A   2       7.079  33.357  36.141  0.00  0.00    +0.000 C 
ENDBRANCH  50  52
ENDBRANCH  38  50
ENDBRANCH  34  38
ENDBRANCH  33  36
BRANCH  33  54
ATOM     54  CB  ASN A   3       4.253  40.254  34.726  0.00  0.00    +0.114 C 
BRANCH  54  55
ATOM     55  CG  ASN A   3       4.364  40.867  36.108  0.00  0.00    +0.222 C 
ATOM     56  OD1 ASN A   3       3.381  41.032  36.841  0.00  0.00    -0.275 OA
ATOM     57  ND2 ASN A   3       5.592  41.213  36.482  0.00  0.00    -0.329 N 
ATOM     58 HD21 ASN A   3       5.750  41.638  37.418  0.00  0.00    +0.145 HD
ATOM     59 HD22 ASN A   3       6.394  41.059  35.839  0.00  0.00    +0.145 HD
ENDBRANCH  54  55
ENDBRANCH  33  54
ENDBRANCH   1  33
TORSDOF 21
REMARK  Name = ../refined-set-2016/1ai7/1ai7_pocket.pdb
REMARK  121 active torsions:
REMARK  status: ('A' for Active; 'I' for Inactive)
REMARK    1  A    between atoms: _1  and  _3
REMARK    2  A    between atoms: _3  and  _4
REMARK    3  A    between atoms: _3  and  _6
REMARK    4  A    between atoms: _6  and  _7
REMARK    5  A    between atoms: _10  and  _12
REMARK    6  A    between atoms: _12  and  _13
REMARK    7  A    between atoms: _12  and  _15
REMARK    8  A    between atoms: _15  and  _16
REMARK    9  A    between atoms: _16  and  _17
REMARK   10  A    between atoms: _19  and  _21
REMARK   11  A    between atoms: _21  and  _22
REMARK   12  A    between atoms: _21  and  _24
REMARK   13  A    between atoms: _24  and  _25
REMARK   14  A    between atoms: _25  and  _26
REMARK   15  A    between atoms: _26  and  _27
REMARK   16  A    between atoms: _36  and  _38
REMARK   17  A    between atoms: _38  and  _39
REMARK   18  A    between atoms: _38  and  _41
REMARK   19  A    between atoms: _41  and  _42
REMARK   20  A    between atoms: _48  and  _50
REMARK   21  A    between atoms: _50  and  _51
REMARK   22  A    between atoms: _50  and  _53
REMARK   23  A    between atoms: _53  and  _54
REMARK   24  A    between atoms: _56  and  _60
REMARK   25  A    between atoms: _60  and  _61
REMARK   26  A    between atoms: _60  and  _63
REMARK   27  A    between atoms: _63  and  _64
REMARK   28  A    between atoms: _66  and  _68
REMARK   29  A    between atoms: _68  and  _69
REMARK   30  A    between atoms: _68  and  _71
REMARK   31  A    between atoms: _71  and  _72
REMARK   32  A    between atoms: _77  and  _79
REMARK   33  A    between atoms: _79  and  _80
REMARK   34  A    between atoms: _79  and  _82
REMARK   35  A    between atoms: _82  and  _83
REMARK   36  A    between atoms: _88  and  _90
REMARK   37  A    between atoms: _90  and  _91
REMARK   38  A    between atoms: _94  and  _95
REMARK   39  A    between atoms: _100  and  _102
REMARK   40  A    between atoms: _102  and  _103
REMARK   41  A    between atoms: _102  and  _105
REMARK   42  A    between atoms: _105  and  _106
REMARK   43  A    between atoms: _106  and  _107
REMARK   44  A    between atoms: _112  and  _114
REMARK   45  A    between atoms: _114  and  _115
REMARK   46  A    between atoms: _114  and  _117
REMARK   47  A    between atoms: _117  and  _118
REMARK   48  A    between atoms: _124  and  _126
REMARK   49  A    between atoms: _126  and  _127
REMARK   50  A    between atoms: _126  and  _129
REMARK   51  A    between atoms: _129  and  _130
REMARK   52  A    between atoms: _135  and  _136
REMARK   53  A    between atoms: _139  and  _140
REMARK   54  A    between atoms: _145  and  _147
REMARK   55  A    between atoms: _147  and  _148
REMARK   56  A    between atoms: _147  and  _150
REMARK   57  A    between atoms: _150  and  _151
REMARK   58  A    between atoms: _156  and  _157
REMARK   59  A    between atoms: _159  and  _161
REMARK   60  A    between atoms: _161  and  _162
REMARK   61  A    between atoms: _161  and  _164
REMARK   62  A    between atoms: _167  and  _169
REMARK   63  A    between atoms: _169  and  _170
REMARK   64  A    between atoms: _169  and  _172
REMARK   65  A    between atoms: _172  and  _173
REMARK   66  A    between atoms: _179  and  _181
REMARK   67  A    between atoms: _181  and  _182
REMARK   68  A    between atoms: _184  and  _186
REMARK   69  A    between atoms: _186  and  _187
REMARK   70  A    between atoms: _186  and  _189
REMARK   71  A    between atoms: _189  and  _190
REMARK   72  A    between atoms: _192  and  _194
REMARK   73  A    between atoms: _194  and  _195
REMARK   74  A    between atoms: _194  and  _197
REMARK   75  A    between atoms: _197  and  _198
REMARK   76  A    between atoms: _201  and  _203
REMARK   77  A    between atoms: _203  and  _204
REMARK   78  A    between atoms: _207  and  _209
REMARK   79  A    between atoms: _209  and  _210
REMARK   80  A    between atoms: _212  and  _214
REMARK   81  A    between atoms: _214  and  _215
REMARK   82  A    between atoms: _214  and  _217
REMARK   83  A    between atoms: _217  and  _218
REMARK   84  A    between atoms: _224  and  _226
REMARK   85  A    between atoms: _226  and  _227
REMARK   86  A    between atoms: _226  and  _229
REMARK   87  A    between atoms: _229  and  _230
REMARK   88  A    between atoms: _240  and  _242
REMARK   89  A    between atoms: _242  and  _243
REMARK   90  A    between atoms: _242  and  _245
REMARK   91  A    between atoms: _245  and  _246
REMARK   92  A    between atoms: _246  and  _247
REMARK   93  A    between atoms: _252  and  _254
REMARK   94  A    between atoms: _254  and  _255
REMARK   95  A    between atoms: _254  and  _257
REMARK   96  A    between atoms: _257  and  _258
REMARK   97  A    between atoms: _261  and  _263
REMARK   98  A    between atoms: _263  and  _264
REMARK   99  A    between atoms: _263  and  _266
REMARK  100  A    between atoms: _266  and  _267
REMARK  101  A    between atoms: _270  and  _272
REMARK  102  A    between atoms: _272  and  _273
REMARK  103  A    between atoms: _272  and  _275
REMARK  104  A    between atoms: _275  and  _276
REMARK  105  A    between atoms: _281  and  _283
REMARK  106  A    between atoms: _283  and  _284
REMARK  107  A    between atoms: _283  and  _286
REMARK  108  A    between atoms: _286  and  _287
REMARK  109  A    between atoms: _297  and  _299
REMARK  110  A    between atoms: _299  and  _300
REMARK  111  A    between atoms: _299  and  _302
REMARK  112  A    between atoms: _302  and  _303
REMARK  113  A    between atoms: _308  and  _309
REMARK  114  A    between atoms: _311  and  _313
REMARK  115  A    between atoms: _313  and  _314
REMARK  116  A    between atoms: _313  and  _316
REMARK  117  A    between atoms: _316  and  _317
REMARK  118  A    between atoms: _322  and  _324
REMARK  119  A    between atoms: _324  and  _325
REMARK  120  A    between atoms: _324  and  _327
REMARK  121  A    between atoms: _327  and  _328
REMARK                            x       y       z     vdW  Elec       q    Type
REMARK                         _______ _______ _______ _____ _____    ______ ____
ROOT
ATOM      1  CB  ASN A   1      11.133  43.359  38.335  0.00  0.00    +0.110 C 
ENDROOT
BRANCH   1   2
ATOM      2  CG  ASN A   1      11.421  42.185  37.438  0.00  0.00    +0.221 C 
ATOM      3  OD1 ASN A   1      10.606  41.290  37.240  0.00  0.00    -0.275 OA
ATOM      4  ND2 ASN A   1      12.642  42.200  36.883  0.00  0.00    -0.329 N 
ATOM      5 HD21 ASN A   1      13.295  42.984  37.084  0.00  0.00    +0.145 HD
ATOM      6 HD22 ASN A   1      12.936  41.428  36.251  0.00  0.00    +0.145 HD
ENDBRANCH   1   2
BRANCH   1   7
ATOM      7  CA  ASN A   1       9.713  43.882  38.064  0.00  0.00    +0.142 C 
BRANCH   7   8
ATOM      8  N   ASN A   1       9.765  44.666  36.824  0.00  0.00    -0.239 NA
ATOM      9  H   ASN A   1       9.034  44.514  36.101  0.00  0.00    +0.142 HD
ENDBRANCH   7   8
BRANCH   7  10
ATOM     10  C   ASN A   1       9.234  44.687  39.262  0.00  0.00    +0.225 C 
ATOM     11  O   ASN A   1       9.610  44.398  40.422  0.00  0.00    -0.287 OA
ENDBRANCH   7  10
ENDBRANCH   1   7
TORSDOF 4
REMARK  Name = ../refined-set-2016/1ai7/1ai7_pocket.pdb
REMARK  121 active torsions:
REMARK  status: ('A' for Active; 'I' for Inactive)
REMARK    1  A    between atoms: _1  and  _3
REMARK    2  A    between atoms: _3  and  _4
REMARK    3  A    between atoms: _3  and  _6
REMARK    4  A    between atoms: _6  and  _7
REMARK    5  A    between atoms: _10  and  _12
REMARK    6  A    between atoms: _12  and  _13
REMARK    7  A    between atoms: _12  and  _15
REMARK    8  A    between atoms: _15  and  _16
REMARK    9  A    between atoms: _16  and  _17
REMARK   10  A    between atoms: _19  and  _21
REMARK   11  A    between atoms: _21  and  _22
REMARK   12  A    between atoms: _21  and  _24
REMARK   13  A    between atoms: _24  and  _25
REMARK   14  A    between atoms: _25  and  _26
REMARK   15  A    between atoms: _26  and  _27
REMARK   16  A    between atoms: _36  and  _38
REMARK   17  A    between atoms: _38  and  _39
REMARK   18  A    between atoms: _38  and  _41
REMARK   19  A    between atoms: _41  and  _42
REMARK   20  A    between atoms: _48  and  _50
REMARK   21  A    between atoms: _50  and  _51
REMARK   22  A    between atoms: _50  and  _53
REMARK   23  A    between atoms: _53  and  _54
REMARK   24  A    between atoms: _56  and  _60
REMARK   25  A    between atoms: _60  and  _61
REMARK   26  A    between atoms: _60  and  _63
REMARK   27  A    between atoms: _63  and  _64
REMARK   28  A    between atoms: _66  and  _68
REMARK   29  A    between atoms: _68  and  _69
REMARK   30  A    between atoms: _68  and  _71
REMARK   31  A    between atoms: _71  and  _72
REMARK   32  A    between atoms: _77  and  _79
REMARK   33  A    between atoms: _79  and  _80
REMARK   34  A    between atoms: _79  and  _82
REMARK   35  A    between atoms: _82  and  _83
REMARK   36  A    between atoms: _88  and  _90
REMARK   37  A    between atoms: _90  and  _91
REMARK   38  A    between atoms: _94  and  _95
REMARK   39  A    between atoms: _100  and  _102
REMARK   40  A    between atoms: _102  and  _103
REMARK   41  A    between atoms: _102  and  _105
REMARK   42  A    between atoms: _105  and  _106
REMARK   43  A    between atoms: _106  and  _107
REMARK   44  A    between atoms: _112  and  _114
REMARK   45  A    between atoms: _114  and  _115
REMARK   46  A    between atoms: _114  and  _117
REMARK   47  A    between atoms: _117  and  _118
REMARK   48  A    between atoms: _124  and  _126
REMARK   49  A    between atoms: _126  and  _127
REMARK   50  A    between atoms: _126  and  _129
REMARK   51  A    between atoms: _129  and  _130
REMARK   52  A    between atoms: _135  and  _136
REMARK   53  A    between atoms: _139  and  _140
REMARK   54  A    between atoms: _145  and  _147
REMARK   55  A    between atoms: _147  and  _148
REMARK   56  A    between atoms: _147  and  _150
REMARK   57  A    between atoms: _150  and  _151
REMARK   58  A    between atoms: _156  and  _157
REMARK   59  A    between atoms: _159  and  _161
REMARK   60  A    between atoms: _161  and  _162
REMARK   61  A    between atoms: _161  and  _164
REMARK   62  A    between atoms: _167  and  _169
REMARK   63  A    between atoms: _169  and  _170
REMARK   64  A    between atoms: _169  and  _172
REMARK   65  A    between atoms: _172  and  _173
REMARK   66  A    between atoms: _179  and  _181
REMARK   67  A    between atoms: _181  and  _182
REMARK   68  A    between atoms: _184  and  _186
REMARK   69  A    between atoms: _186  and  _187
REMARK   70  A    between atoms: _186  and  _189
REMARK   71  A    between atoms: _189  and  _190
REMARK   72  A    between atoms: _192  and  _194
REMARK   73  A    between atoms: _194  and  _195
REMARK   74  A    between atoms: _194  and  _197
REMARK   75  A    between atoms: _197  and  _198
REMARK   76  A    between atoms: _201  and  _203
REMARK   77  A    between atoms: _203  and  _204
REMARK   78  A    between atoms: _207  and  _209
REMARK   79  A    between atoms: _209  and  _210
REMARK   80  A    between atoms: _212  and  _214
REMARK   81  A    between atoms: _214  and  _215
REMARK   82  A    between atoms: _214  and  _217
REMARK   83  A    between atoms: _217  and  _218
REMARK   84  A    between atoms: _224  and  _226
REMARK   85  A    between atoms: _226  and  _227
REMARK   86  A    between atoms: _226  and  _229
REMARK   87  A    between atoms: _229  and  _230
REMARK   88  A    between atoms: _240  and  _242
REMARK   89  A    between atoms: _242  and  _243
REMARK   90  A    between atoms: _242  and  _245
REMARK   91  A    between atoms: _245  and  _246
REMARK   92  A    between atoms: _246  and  _247
REMARK   93  A    between atoms: _252  and  _254
REMARK   94  A    between atoms: _254  and  _255
REMARK   95  A    between atoms: _254  and  _257
REMARK   96  A    between atoms: _257  and  _258
REMARK   97  A    between atoms: _261  and  _263
REMARK   98  A    between atoms: _263  and  _264
REMARK   99  A    between atoms: _263  and  _266
REMARK  100  A    between atoms: _266  and  _267
REMARK  101  A    between atoms: _270  and  _272
REMARK  102  A    between atoms: _272  and  _273
REMARK  103  A    between atoms: _272  and  _275
REMARK  104  A    between atoms: _275  and  _276
REMARK  105  A    between atoms: _281  and  _283
REMARK  106  A    between atoms: _283  and  _284
REMARK  107  A    between atoms: _283  and  _286
REMARK  108  A    between atoms: _286  and  _287
REMARK  109  A    between atoms: _297  and  _299
REMARK  110  A    between atoms: _299  and  _300
REMARK  111  A    between atoms: _299  and  _302
REMARK  112  A    between atoms: _302  and  _303
REMARK  113  A    between atoms: _308  and  _309
REMARK  114  A    between atoms: _311  and  _313
REMARK  115  A    between atoms: _313  and  _314
REMARK  116  A    between atoms: _313  and  _316
REMARK  117  A    between atoms: _316  and  _317
REMARK  118  A    between atoms: _322  and  _324
REMARK  119  A    between atoms: _324  and  _325
REMARK  120  A    between atoms: _324  and  _327
REMARK  121  A    between atoms: _327  and  _328
REMARK                            x       y       z     vdW  Elec       q    Type
REMARK                         _______ _______ _______ _____ _____    ______ ____
ROOT
ATOM      1  CA  THR A   1      19.306  38.662  27.520  0.00  0.00    +0.160 C 
ENDROOT
BRANCH   1   2
ATOM      2  N   THR A   1      18.463  39.710  28.003  0.00  0.00    -0.237 NA
ATOM      3  H   THR A   1      17.896  39.482  28.844  0.00  0.00    +0.142 HD
ENDBRANCH   1   2
BRANCH   1   4
ATOM      4  CB  THR A   1      18.959  37.332  28.187  0.00  0.00    +0.134 C 
ATOM      5  CG2 THR A   1      19.867  36.214  27.666  0.00  0.00    +0.034 C 
BRANCH   4   6
ATOM      6  OG1 THR A   1      19.172  37.533  29.611  0.00  0.00    -0.383 OA
ATOM      7  HG1 THR A   1      20.118  37.779  29.771  0.00  0.00    +0.210 HD
ENDBRANCH   4   6
ENDBRANCH   1   4
BRANCH   1   8
ATOM      8  C   THR A   1      19.027  38.479  26.010  0.00  0.00    +0.227 C 
ATOM      9  O   THR A   1      19.948  38.299  25.234  0.00  0.00    -0.287 OA
ENDBRANCH   1   8
TORSDOF 4
REMARK  Name = ../refined-set-2016/1ai7/1ai7_pocket.pdb
REMARK  121 active torsions:
REMARK  status: ('A' for Active; 'I' for Inactive)
REMARK    1  A    between atoms: _1  and  _3
REMARK    2  A    between atoms: _3  and  _4
REMARK    3  A    between atoms: _3  and  _6
REMARK    4  A    between atoms: _6  and  _7
REMARK    5  A    between atoms: _10  and  _12
REMARK    6  A    between atoms: _12  and  _13
REMARK    7  A    between atoms: _12  and  _15
REMARK    8  A    between atoms: _15  and  _16
REMARK    9  A    between atoms: _16  and  _17
REMARK   10  A    between atoms: _19  and  _21
REMARK   11  A    between atoms: _21  and  _22
REMARK   12  A    between atoms: _21  and  _24
REMARK   13  A    between atoms: _24  and  _25
REMARK   14  A    between atoms: _25  and  _26
REMARK   15  A    between atoms: _26  and  _27
REMARK   16  A    between atoms: _36  and  _38
REMARK   17  A    between atoms: _38  and  _39
REMARK   18  A    between atoms: _38  and  _41
REMARK   19  A    between atoms: _41  and  _42
REMARK   20  A    between atoms: _48  and  _50
REMARK   21  A    between atoms: _50  and  _51
REMARK   22  A    between atoms: _50  and  _53
REMARK   23  A    between atoms: _53  and  _54
REMARK   24  A    between atoms: _56  and  _60
REMARK   25  A    between atoms: _60  and  _61
REMARK   26  A    between atoms: _60  and  _63
REMARK   27  A    between atoms: _63  and  _64
REMARK   28  A    between atoms: _66  and  _68
REMARK   29  A    between atoms: _68  and  _69
REMARK   30  A    between atoms: _68  and  _71
REMARK   31  A    between atoms: _71  and  _72
REMARK   32  A    between atoms: _77  and  _79
REMARK   33  A    between atoms: _79  and  _80
REMARK   34  A    between atoms: _79  and  _82
REMARK   35  A    between atoms: _82  and  _83
REMARK   36  A    between atoms: _88  and  _90
REMARK   37  A    between atoms: _90  and  _91
REMARK   38  A    between atoms: _94  and  _95
REMARK   39  A    between atoms: _100  and  _102
REMARK   40  A    between atoms: _102  and  _103
REMARK   41  A    between atoms: _102  and  _105
REMARK   42  A    between atoms: _105  and  _106
REMARK   43  A    between atoms: _106  and  _107
REMARK   44  A    between atoms: _112  and  _114
REMARK   45  A    between atoms: _114  and  _115
REMARK   46  A    between atoms: _114  and  _117
REMARK   47  A    between atoms: _117  and  _118
REMARK   48  A    between atoms: _124  and  _126
REMARK   49  A    between atoms: _126  and  _127
REMARK   50  A    between atoms: _126  and  _129
REMARK   51  A    between atoms: _129  and  _130
REMARK   52  A    between atoms: _135  and  _136
REMARK   53  A    between atoms: _139  and  _140
REMARK   54  A    between atoms: _145  and  _147
REMARK   55  A    between atoms: _147  and  _148
REMARK   56  A    between atoms: _147  and  _150
REMARK   57  A    between atoms: _150  and  _151
REMARK   58  A    between atoms: _156  and  _157
REMARK   59  A    between atoms: _159  and  _161
REMARK   60  A    between atoms: _161  and  _162
REMARK   61  A    between atoms: _161  and  _164
REMARK   62  A    between atoms: _167  and  _169
REMARK   63  A    between atoms: _169  and  _170
REMARK   64  A    between atoms: _169  and  _172
REMARK   65  A    between atoms: _172  and  _173
REMARK   66  A    between atoms: _179  and  _181
REMARK   67  A    between atoms: _181  and  _182
REMARK   68  A    between atoms: _184  and  _186
REMARK   69  A    between atoms: _186  and  _187
REMARK   70  A    between atoms: _186  and  _189
REMARK   71  A    between atoms: _189  and  _190
REMARK   72  A    between atoms: _192  and  _194
REMARK   73  A    between atoms: _194  and  _195
REMARK   74  A    between atoms: _194  and  _197
REMARK   75  A    between atoms: _197  and  _198
REMARK   76  A    between atoms: _201  and  _203
REMARK   77  A    between atoms: _203  and  _204
REMARK   78  A    between atoms: _207  and  _209
REMARK   79  A    between atoms: _209  and  _210
REMARK   80  A    between atoms: _212  and  _214
REMARK   81  A    between atoms: _214  and  _215
REMARK   82  A    between atoms: _214  and  _217
REMARK   83  A    between atoms: _217  and  _218
REMARK   84  A    between atoms: _224  and  _226
REMARK   85  A    between atoms: _226  and  _227
REMARK   86  A    between atoms: _226  and  _229
REMARK   87  A    between atoms: _229  and  _230
REMARK   88  A    between atoms: _240  and  _242
REMARK   89  A    between atoms: _242  and  _243
REMARK   90  A    between atoms: _242  and  _245
REMARK   91  A    between atoms: _245  and  _246
REMARK   92  A    between atoms: _246  and  _247
REMARK   93  A    between atoms: _252  and  _254
REMARK   94  A    between atoms: _254  and  _255
REMARK   95  A    between atoms: _254  and  _257
REMARK   96  A    between atoms: _257  and  _258
REMARK   97  A    between atoms: _261  and  _263
REMARK   98  A    between atoms: _263  and  _264
REMARK   99  A    between atoms: _263  and  _266
REMARK  100  A    between atoms: _266  and  _267
REMARK  101  A    between atoms: _270  and  _272
REMARK  102  A    between atoms: _272  and  _273
REMARK  103  A    between atoms: _272  and  _275
REMARK  104  A    between atoms: _275  and  _276
REMARK  105  A    between atoms: _281  and  _283
REMARK  106  A    between atoms: _283  and  _284
REMARK  107  A    between atoms: _283  and  _286
REMARK  108  A    between atoms: _286  and  _287
REMARK  109  A    between atoms: _297  and  _299
REMARK  110  A    between atoms: _299  and  _300
REMARK  111  A    between atoms: _299  and  _302
REMARK  112  A    between atoms: _302  and  _303
REMARK  113  A    between atoms: _308  and  _309
REMARK  114  A    between atoms: _311  and  _313
REMARK  115  A    between atoms: _313  and  _314
REMARK  116  A    between atoms: _313  and  _316
REMARK  117  A    between atoms: _316  and  _317
REMARK  118  A    between atoms: _322  and  _324
REMARK  119  A    between atoms: _324  and  _325
REMARK  120  A    between atoms: _324  and  _327
REMARK  121  A    between atoms: _327  and  _328
REMARK                            x       y       z     vdW  Elec       q    Type
REMARK                         _______ _______ _______ _____ _____    ______ ____
ROOT
ATOM      1  O   HOH     1       9.213  36.202  40.067  0.00  0.00    +0.000 OA
ENDROOT
TORSDOF 0
REMARK  Name = ../refined-set-2016/1ai7/1ai7_pocket.pdb
REMARK  121 active torsions:
REMARK  status: ('A' for Active; 'I' for Inactive)
REMARK    1  A    between atoms: _1  and  _3
REMARK    2  A    between atoms: _3  and  _4
REMARK    3  A    between atoms: _3  and  _6
REMARK    4  A    between atoms: _6  and  _7
REMARK    5  A    between atoms: _10  and  _12
REMARK    6  A    between atoms: _12  and  _13
REMARK    7  A    between atoms: _12  and  _15
REMARK    8  A    between atoms: _15  and  _16
REMARK    9  A    between atoms: _16  and  _17
REMARK   10  A    between atoms: _19  and  _21
REMARK   11  A    between atoms: _21  and  _22
REMARK   12  A    between atoms: _21  and  _24
REMARK   13  A    between atoms: _24  and  _25
REMARK   14  A    between atoms: _25  and  _26
REMARK   15  A    between atoms: _26  and  _27
REMARK   16  A    between atoms: _36  and  _38
REMARK   17  A    between atoms: _38  and  _39
REMARK   18  A    between atoms: _38  and  _41
REMARK   19  A    between atoms: _41  and  _42
REMARK   20  A    between atoms: _48  and  _50
REMARK   21  A    between atoms: _50  and  _51
REMARK   22  A    between atoms: _50  and  _53
REMARK   23  A    between atoms: _53  and  _54
REMARK   24  A    between atoms: _56  and  _60
REMARK   25  A    between atoms: _60  and  _61
REMARK   26  A    between atoms: _60  and  _63
REMARK   27  A    between atoms: _63  and  _64
REMARK   28  A    between atoms: _66  and  _68
REMARK   29  A    between atoms: _68  and  _69
REMARK   30  A    between atoms: _68  and  _71
REMARK   31  A    between atoms: _71  and  _72
REMARK   32  A    between atoms: _77  and  _79
REMARK   33  A    between atoms: _79  and  _80
REMARK   34  A    between atoms: _79  and  _82
REMARK   35  A    between atoms: _82  and  _83
REMARK   36  A    between atoms: _88  and  _90
REMARK   37  A    between atoms: _90  and  _91
REMARK   38  A    between atoms: _94  and  _95
REMARK   39  A    between atoms: _100  and  _102
REMARK   40  A    between atoms: _102  and  _103
REMARK   41  A    between atoms: _102  and  _105
REMARK   42  A    between atoms: _105  and  _106
REMARK   43  A    between atoms: _106  and  _107
REMARK   44  A    between atoms: _112  and  _114
REMARK   45  A    between atoms: _114  and  _115
REMARK   46  A    between atoms: _114  and  _117
REMARK   47  A    between atoms: _117  and  _118
REMARK   48  A    between atoms: _124  and  _126
REMARK   49  A    between atoms: _126  and  _127
REMARK   50  A    between atoms: _126  and  _129
REMARK   51  A    between atoms: _129  and  _130
REMARK   52  A    between atoms: _135  and  _136
REMARK   53  A    between atoms: _139  and  _140
REMARK   54  A    between atoms: _145  and  _147
REMARK   55  A    between atoms: _147  and  _148
REMARK   56  A    between atoms: _147  and  _150
REMARK   57  A    between atoms: _150  and  _151
REMARK   58  A    between atoms: _156  and  _157
REMARK   59  A    between atoms: _159  and  _161
REMARK   60  A    between atoms: _161  and  _162
REMARK   61  A    between atoms: _161  and  _164
REMARK   62  A    between atoms: _167  and  _169
REMARK   63  A    between atoms: _169  and  _170
REMARK   64  A    between atoms: _169  and  _172
REMARK   65  A    between atoms: _172  and  _173
REMARK   66  A    between atoms: _179  and  _181
REMARK   67  A    between atoms: _181  and  _182
REMARK   68  A    between atoms: _184  and  _186
REMARK   69  A    between atoms: _186  and  _187
REMARK   70  A    between atoms: _186  and  _189
REMARK   71  A    between atoms: _189  and  _190
REMARK   72  A    between atoms: _192  and  _194
REMARK   73  A    between atoms: _194  and  _195
REMARK   74  A    between atoms: _194  and  _197
REMARK   75  A    between atoms: _197  and  _198
REMARK   76  A    between atoms: _201  and  _203
REMARK   77  A    between atoms: _203  and  _204
REMARK   78  A    between atoms: _207  and  _209
REMARK   79  A    between atoms: _209  and  _210
REMARK   80  A    between atoms: _212  and  _214
REMARK   81  A    between atoms: _214  and  _215
REMARK   82  A    between atoms: _214  and  _217
REMARK   83  A    between atoms: _217  and  _218
REMARK   84  A    between atoms: _224  and  _226
REMARK   85  A    between atoms: _226  and  _227
REMARK   86  A    between atoms: _226  and  _229
REMARK   87  A    between atoms: _229  and  _230
REMARK   88  A    between atoms: _240  and  _242
REMARK   89  A    between atoms: _242  and  _243
REMARK   90  A    between atoms: _242  and  _245
REMARK   91  A    between atoms: _245  and  _246
REMARK   92  A    between atoms: _246  and  _247
REMARK   93  A    between atoms: _252  and  _254
REMARK   94  A    between atoms: _254  and  _255
REMARK   95  A    between atoms: _254  and  _257
REMARK   96  A    between atoms: _257  and  _258
REMARK   97  A    between atoms: _261  and  _263
REMARK   98  A    between atoms: _263  and  _264
REMARK   99  A    between atoms: _263  and  _266
REMARK  100  A    between atoms: _266  and  _267
REMARK  101  A    between atoms: _270  and  _272
REMARK  102  A    between atoms: _272  and  _273
REMARK  103  A    between atoms: _272  and  _275
REMARK  104  A    between atoms: _275  and  _276
REMARK  105  A    between atoms: _281  and  _283
REMARK  106  A    between atoms: _283  and  _284
REMARK  107  A    between atoms: _283  and  _286
REMARK  108  A    between atoms: _286  and  _287
REMARK  109  A    between atoms: _297  and  _299
REMARK  110  A    between atoms: _299  and  _300
REMARK  111  A    between atoms: _299  and  _302
REMARK  112  A    between atoms: _302  and  _303
REMARK  113  A    between atoms: _308  and  _309
REMARK  114  A    between atoms: _311  and  _313
REMARK  115  A    between atoms: _313  and  _314
REMARK  116  A    between atoms: _313  and  _316
REMARK  117  A    between atoms: _316  and  _317
REMARK  118  A    between atoms: _322  and  _324
REMARK  119  A    between atoms: _324  and  _325
REMARK  120  A    between atoms: _324  and  _327
REMARK  121  A    between atoms: _327  and  _328
REMARK                            x       y       z     vdW  Elec       q    Type
REMARK                         _______ _______ _______ _____ _____    ______ ____
ROOT
ATOM      1  O   HOH     1      17.943  39.396  36.962  0.00  0.00    +0.000 OA
ENDROOT
TORSDOF 0
REMARK  Name = ../refined-set-2016/1ai7/1ai7_pocket.pdb
REMARK  121 active torsions:
REMARK  status: ('A' for Active; 'I' for Inactive)
REMARK    1  A    between atoms: _1  and  _3
REMARK    2  A    between atoms: _3  and  _4
REMARK    3  A    between atoms: _3  and  _6
REMARK    4  A    between atoms: _6  and  _7
REMARK    5  A    between atoms: _10  and  _12
REMARK    6  A    between atoms: _12  and  _13
REMARK    7  A    between atoms: _12  and  _15
REMARK    8  A    between atoms: _15  and  _16
REMARK    9  A    between atoms: _16  and  _17
REMARK   10  A    between atoms: _19  and  _21
REMARK   11  A    between atoms: _21  and  _22
REMARK   12  A    between atoms: _21  and  _24
REMARK   13  A    between atoms: _24  and  _25
REMARK   14  A    between atoms: _25  and  _26
REMARK   15  A    between atoms: _26  and  _27
REMARK   16  A    between atoms: _36  and  _38
REMARK   17  A    between atoms: _38  and  _39
REMARK   18  A    between atoms: _38  and  _41
REMARK   19  A    between atoms: _41  and  _42
REMARK   20  A    between atoms: _48  and  _50
REMARK   21  A    between atoms: _50  and  _51
REMARK   22  A    between atoms: _50  and  _53
REMARK   23  A    between atoms: _53  and  _54
REMARK   24  A    between atoms: _56  and  _60
REMARK   25  A    between atoms: _60  and  _61
REMARK   26  A    between atoms: _60  and  _63
REMARK   27  A    between atoms: _63  and  _64
REMARK   28  A    between atoms: _66  and  _68
REMARK   29  A    between atoms: _68  and  _69
REMARK   30  A    between atoms: _68  and  _71
REMARK   31  A    between atoms: _71  and  _72
REMARK   32  A    between atoms: _77  and  _79
REMARK   33  A    between atoms: _79  and  _80
REMARK   34  A    between atoms: _79  and  _82
REMARK   35  A    between atoms: _82  and  _83
REMARK   36  A    between atoms: _88  and  _90
REMARK   37  A    between atoms: _90  and  _91
REMARK   38  A    between atoms: _94  and  _95
REMARK   39  A    between atoms: _100  and  _102
REMARK   40  A    between atoms: _102  and  _103
REMARK   41  A    between atoms: _102  and  _105
REMARK   42  A    between atoms: _105  and  _106
REMARK   43  A    between atoms: _106  and  _107
REMARK   44  A    between atoms: _112  and  _114
REMARK   45  A    between atoms: _114  and  _115
REMARK   46  A    between atoms: _114  and  _117
REMARK   47  A    between atoms: _117  and  _118
REMARK   48  A    between atoms: _124  and  _126
REMARK   49  A    between atoms: _126  and  _127
REMARK   50  A    between atoms: _126  and  _129
REMARK   51  A    between atoms: _129  and  _130
REMARK   52  A    between atoms: _135  and  _136
REMARK   53  A    between atoms: _139  and  _140
REMARK   54  A    between atoms: _145  and  _147
REMARK   55  A    between atoms: _147  and  _148
REMARK   56  A    between atoms: _147  and  _150
REMARK   57  A    between atoms: _150  and  _151
REMARK   58  A    between atoms: _156  and  _157
REMARK   59  A    between atoms: _159  and  _161
REMARK   60  A    between atoms: _161  and  _162
REMARK   61  A    between atoms: _161  and  _164
REMARK   62  A    between atoms: _167  and  _169
REMARK   63  A    between atoms: _169  and  _170
REMARK   64  A    between atoms: _169  and  _172
REMARK   65  A    between atoms: _172  and  _173
REMARK   66  A    between atoms: _179  and  _181
REMARK   67  A    between atoms: _181  and  _182
REMARK   68  A    between atoms: _184  and  _186
REMARK   69  A    between atoms: _186  and  _187
REMARK   70  A    between atoms: _186  and  _189
REMARK   71  A    between atoms: _189  and  _190
REMARK   72  A    between atoms: _192  and  _194
REMARK   73  A    between atoms: _194  and  _195
REMARK   74  A    between atoms: _194  and  _197
REMARK   75  A    between atoms: _197  and  _198
REMARK   76  A    between atoms: _201  and  _203
REMARK   77  A    between atoms: _203  and  _204
REMARK   78  A    between atoms: _207  and  _209
REMARK   79  A    between atoms: _209  and  _210
REMARK   80  A    between atoms: _212  and  _214
REMARK   81  A    between atoms: _214  and  _215
REMARK   82  A    between atoms: _214  and  _217
REMARK   83  A    between atoms: _217  and  _218
REMARK   84  A    between atoms: _224  and  _226
REMARK   85  A    between atoms: _226  and  _227
REMARK   86  A    between atoms: _226  and  _229
REMARK   87  A    between atoms: _229  and  _230
REMARK   88  A    between atoms: _240  and  _242
REMARK   89  A    between atoms: _242  and  _243
REMARK   90  A    between atoms: _242  and  _245
REMARK   91  A    between atoms: _245  and  _246
REMARK   92  A    between atoms: _246  and  _247
REMARK   93  A    between atoms: _252  and  _254
REMARK   94  A    between atoms: _254  and  _255
REMARK   95  A    between atoms: _254  and  _257
REMARK   96  A    between atoms: _257  and  _258
REMARK   97  A    between atoms: _261  and  _263
REMARK   98  A    between atoms: _263  and  _264
REMARK   99  A    between atoms: _263  and  _266
REMARK  100  A    between atoms: _266  and  _267
REMARK  101  A    between atoms: _270  and  _272
REMARK  102  A    between atoms: _272  and  _273
REMARK  103  A    between atoms: _272  and  _275
REMARK  104  A    between atoms: _275  and  _276
REMARK  105  A    between atoms: _281  and  _283
REMARK  106  A    between atoms: _283  and  _284
REMARK  107  A    between atoms: _283  and  _286
REMARK  108  A    between atoms: _286  and  _287
REMARK  109  A    between atoms: _297  and  _299
REMARK  110  A    between atoms: _299  and  _300
REMARK  111  A    between atoms: _299  and  _302
REMARK  112  A    between atoms: _302  and  _303
REMARK  113  A    between atoms: _308  and  _309
REMARK  114  A    between atoms: _311  and  _313
REMARK  115  A    between atoms: _313  and  _314
REMARK  116  A    between atoms: _313  and  _316
REMARK  117  A    between atoms: _316  and  _317
REMARK  118  A    between atoms: _322  and  _324
REMARK  119  A    between atoms: _324  and  _325
REMARK  120  A    between atoms: _324  and  _327
REMARK  121  A    between atoms: _327  and  _328
REMARK                            x       y       z     vdW  Elec       q    Type
REMARK                         _______ _______ _______ _____ _____    ______ ____
ROOT
ATOM      1  O   HOH     1      15.837  37.372  38.843  0.00  0.00    +0.000 OA
ENDROOT
TORSDOF 0
REMARK  Name = ../refined-set-2016/1ai7/1ai7_pocket.pdb
REMARK  121 active torsions:
REMARK  status: ('A' for Active; 'I' for Inactive)
REMARK    1  A    between atoms: _1  and  _3
REMARK    2  A    between atoms: _3  and  _4
REMARK    3  A    between atoms: _3  and  _6
REMARK    4  A    between atoms: _6  and  _7
REMARK    5  A    between atoms: _10  and  _12
REMARK    6  A    between atoms: _12  and  _13
REMARK    7  A    between atoms: _12  and  _15
REMARK    8  A    between atoms: _15  and  _16
REMARK    9  A    between atoms: _16  and  _17
REMARK   10  A    between atoms: _19  and  _21
REMARK   11  A    between atoms: _21  and  _22
REMARK   12  A    between atoms: _21  and  _24
REMARK   13  A    between atoms: _24  and  _25
REMARK   14  A    between atoms: _25  and  _26
REMARK   15  A    between atoms: _26  and  _27
REMARK   16  A    between atoms: _36  and  _38
REMARK   17  A    between atoms: _38  and  _39
REMARK   18  A    between atoms: _38  and  _41
REMARK   19  A    between atoms: _41  and  _42
REMARK   20  A    between atoms: _48  and  _50
REMARK   21  A    between atoms: _50  and  _51
REMARK   22  A    between atoms: _50  and  _53
REMARK   23  A    between atoms: _53  and  _54
REMARK   24  A    between atoms: _56  and  _60
REMARK   25  A    between atoms: _60  and  _61
REMARK   26  A    between atoms: _60  and  _63
REMARK   27  A    between atoms: _63  and  _64
REMARK   28  A    between atoms: _66  and  _68
REMARK   29  A    between atoms: _68  and  _69
REMARK   30  A    between atoms: _68  and  _71
REMARK   31  A    between atoms: _71  and  _72
REMARK   32  A    between atoms: _77  and  _79
REMARK   33  A    between atoms: _79  and  _80
REMARK   34  A    between atoms: _79  and  _82
REMARK   35  A    between atoms: _82  and  _83
REMARK   36  A    between atoms: _88  and  _90
REMARK   37  A    between atoms: _90  and  _91
REMARK   38  A    between atoms: _94  and  _95
REMARK   39  A    between atoms: _100  and  _102
REMARK   40  A    between atoms: _102  and  _103
REMARK   41  A    between atoms: _102  and  _105
REMARK   42  A    between atoms: _105  and  _106
REMARK   43  A    between atoms: _106  and  _107
REMARK   44  A    between atoms: _112  and  _114
REMARK   45  A    between atoms: _114  and  _115
REMARK   46  A    between atoms: _114  and  _117
REMARK   47  A    between atoms: _117  and  _118
REMARK   48  A    between atoms: _124  and  _126
REMARK   49  A    between atoms: _126  and  _127
REMARK   50  A    between atoms: _126  and  _129
REMARK   51  A    between atoms: _129  and  _130
REMARK   52  A    between atoms: _135  and  _136
REMARK   53  A    between atoms: _139  and  _140
REMARK   54  A    between atoms: _145  and  _147
REMARK   55  A    between atoms: _147  and  _148
REMARK   56  A    between atoms: _147  and  _150
REMARK   57  A    between atoms: _150  and  _151
REMARK   58  A    between atoms: _156  and  _157
REMARK   59  A    between atoms: _159  and  _161
REMARK   60  A    between atoms: _161  and  _162
REMARK   61  A    between atoms: _161  and  _164
REMARK   62  A    between atoms: _167  and  _169
REMARK   63  A    between atoms: _169  and  _170
REMARK   64  A    between atoms: _169  and  _172
REMARK   65  A    between atoms: _172  and  _173
REMARK   66  A    between atoms: _179  and  _181
REMARK   67  A    between atoms: _181  and  _182
REMARK   68  A    between atoms: _184  and  _186
REMARK   69  A    between atoms: _186  and  _187
REMARK   70  A    between atoms: _186  and  _189
REMARK   71  A    between atoms: _189  and  _190
REMARK   72  A    between atoms: _192  and  _194
REMARK   73  A    between atoms: _194  and  _195
REMARK   74  A    between atoms: _194  and  _197
REMARK   75  A    between atoms: _197  and  _198
REMARK   76  A    between atoms: _201  and  _203
REMARK   77  A    between atoms: _203  and  _204
REMARK   78  A    between atoms: _207  and  _209
REMARK   79  A    between atoms: _209  and  _210
REMARK   80  A    between atoms: _212  and  _214
REMARK   81  A    between atoms: _214  and  _215
REMARK   82  A    between atoms: _214  and  _217
REMARK   83  A    between atoms: _217  and  _218
REMARK   84  A    between atoms: _224  and  _226
REMARK   85  A    between atoms: _226  and  _227
REMARK   86  A    between atoms: _226  and  _229
REMARK   87  A    between atoms: _229  and  _230
REMARK   88  A    between atoms: _240  and  _242
REMARK   89  A    between atoms: _242  and  _243
REMARK   90  A    between atoms: _242  and  _245
REMARK   91  A    between atoms: _245  and  _246
REMARK   92  A    between atoms: _246  and  _247
REMARK   93  A    between atoms: _252  and  _254
REMARK   94  A    between atoms: _254  and  _255
REMARK   95  A    between atoms: _254  and  _257
REMARK   96  A    between atoms: _257  and  _258
REMARK   97  A    between atoms: _261  and  _263
REMARK   98  A    between atoms: _263  and  _264
REMARK   99  A    between atoms: _263  and  _266
REMARK  100  A    between atoms: _266  and  _267
REMARK  101  A    between atoms: _270  and  _272
REMARK  102  A    between atoms: _272  and  _273
REMARK  103  A    between atoms: _272  and  _275
REMARK  104  A    between atoms: _275  and  _276
REMARK  105  A    between atoms: _281  and  _283
REMARK  106  A    between atoms: _283  and  _284
REMARK  107  A    between atoms: _283  and  _286
REMARK  108  A    between atoms: _286  and  _287
REMARK  109  A    between atoms: _297  and  _299
REMARK  110  A    between atoms: _299  and  _300
REMARK  111  A    between atoms: _299  and  _302
REMARK  112  A    between atoms: _302  and  _303
REMARK  113  A    between atoms: _308  and  _309
REMARK  114  A    between atoms: _311  and  _313
REMARK  115  A    between atoms: _313  and  _314
REMARK  116  A    between atoms: _313  and  _316
REMARK  117  A    between atoms: _316  and  _317
REMARK  118  A    between atoms: _322  and  _324
REMARK  119  A    between atoms: _324  and  _325
REMARK  120  A    between atoms: _324  and  _327
REMARK  121  A    between atoms: _327  and  _328
REMARK                            x       y       z     vdW  Elec       q    Type
REMARK                         _______ _______ _______ _____ _____    ______ ____
ROOT
ATOM      1  O   HOH     1      15.132  34.950  41.232  0.00  0.00    +0.000 OA
ENDROOT
TORSDOF 0
REMARK  Name = ../refined-set-2016/1ai7/1ai7_pocket.pdb
REMARK  121 active torsions:
REMARK  status: ('A' for Active; 'I' for Inactive)
REMARK    1  A    between atoms: _1  and  _3
REMARK    2  A    between atoms: _3  and  _4
REMARK    3  A    between atoms: _3  and  _6
REMARK    4  A    between atoms: _6  and  _7
REMARK    5  A    between atoms: _10  and  _12
REMARK    6  A    between atoms: _12  and  _13
REMARK    7  A    between atoms: _12  and  _15
REMARK    8  A    between atoms: _15  and  _16
REMARK    9  A    between atoms: _16  and  _17
REMARK   10  A    between atoms: _19  and  _21
REMARK   11  A    between atoms: _21  and  _22
REMARK   12  A    between atoms: _21  and  _24
REMARK   13  A    between atoms: _24  and  _25
REMARK   14  A    between atoms: _25  and  _26
REMARK   15  A    between atoms: _26  and  _27
REMARK   16  A    between atoms: _36  and  _38
REMARK   17  A    between atoms: _38  and  _39
REMARK   18  A    between atoms: _38  and  _41
REMARK   19  A    between atoms: _41  and  _42
REMARK   20  A    between atoms: _48  and  _50
REMARK   21  A    between atoms: _50  and  _51
REMARK   22  A    between atoms: _50  and  _53
REMARK   23  A    between atoms: _53  and  _54
REMARK   24  A    between atoms: _56  and  _60
REMARK   25  A    between atoms: _60  and  _61
REMARK   26  A    between atoms: _60  and  _63
REMARK   27  A    between atoms: _63  and  _64
REMARK   28  A    between atoms: _66  and  _68
REMARK   29  A    between atoms: _68  and  _69
REMARK   30  A    between atoms: _68  and  _71
REMARK   31  A    between atoms: _71  and  _72
REMARK   32  A    between atoms: _77  and  _79
REMARK   33  A    between atoms: _79  and  _80
REMARK   34  A    between atoms: _79  and  _82
REMARK   35  A    between atoms: _82  and  _83
REMARK   36  A    between atoms: _88  and  _90
REMARK   37  A    between atoms: _90  and  _91
REMARK   38  A    between atoms: _94  and  _95
REMARK   39  A    between atoms: _100  and  _102
REMARK   40  A    between atoms: _102  and  _103
REMARK   41  A    between atoms: _102  and  _105
REMARK   42  A    between atoms: _105  and  _106
REMARK   43  A    between atoms: _106  and  _107
REMARK   44  A    between atoms: _112  and  _114
REMARK   45  A    between atoms: _114  and  _115
REMARK   46  A    between atoms: _114  and  _117
REMARK   47  A    between atoms: _117  and  _118
REMARK   48  A    between atoms: _124  and  _126
REMARK   49  A    between atoms: _126  and  _127
REMARK   50  A    between atoms: _126  and  _129
REMARK   51  A    between atoms: _129  and  _130
REMARK   52  A    between atoms: _135  and  _136
REMARK   53  A    between atoms: _139  and  _140
REMARK   54  A    between atoms: _145  and  _147
REMARK   55  A    between atoms: _147  and  _148
REMARK   56  A    between atoms: _147  and  _150
REMARK   57  A    between atoms: _150  and  _151
REMARK   58  A    between atoms: _156  and  _157
REMARK   59  A    between atoms: _159  and  _161
REMARK   60  A    between atoms: _161  and  _162
REMARK   61  A    between atoms: _161  and  _164
REMARK   62  A    between atoms: _167  and  _169
REMARK   63  A    between atoms: _169  and  _170
REMARK   64  A    between atoms: _169  and  _172
REMARK   65  A    between atoms: _172  and  _173
REMARK   66  A    between atoms: _179  and  _181
REMARK   67  A    between atoms: _181  and  _182
REMARK   68  A    between atoms: _184  and  _186
REMARK   69  A    between atoms: _186  and  _187
REMARK   70  A    between atoms: _186  and  _189
REMARK   71  A    between atoms: _189  and  _190
REMARK   72  A    between atoms: _192  and  _194
REMARK   73  A    between atoms: _194  and  _195
REMARK   74  A    between atoms: _194  and  _197
REMARK   75  A    between atoms: _197  and  _198
REMARK   76  A    between atoms: _201  and  _203
REMARK   77  A    between atoms: _203  and  _204
REMARK   78  A    between atoms: _207  and  _209
REMARK   79  A    between atoms: _209  and  _210
REMARK   80  A    between atoms: _212  and  _214
REMARK   81  A    between atoms: _214  and  _215
REMARK   82  A    between atoms: _214  and  _217
REMARK   83  A    between atoms: _217  and  _218
REMARK   84  A    between atoms: _224  and  _226
REMARK   85  A    between atoms: _226  and  _227
REMARK   86  A    between atoms: _226  and  _229
REMARK   87  A    between atoms: _229  and  _230
REMARK   88  A    between atoms: _240  and  _242
REMARK   89  A    between atoms: _242  and  _243
REMARK   90  A    between atoms: _242  and  _245
REMARK   91  A    between atoms: _245  and  _246
REMARK   92  A    between atoms: _246  and  _247
REMARK   93  A    between atoms: _252  and  _254
REMARK   94  A    between atoms: _254  and  _255
REMARK   95  A    between atoms: _254  and  _257
REMARK   96  A    between atoms: _257  and  _258
REMARK   97  A    between atoms: _261  and  _263
REMARK   98  A    between atoms: _263  and  _264
REMARK   99  A    between atoms: _263  and  _266
REMARK  100  A    between atoms: _266  and  _267
REMARK  101  A    between atoms: _270  and  _272
REMARK  102  A    between atoms: _272  and  _273
REMARK  103  A    between atoms: _272  and  _275
REMARK  104  A    between atoms: _275  and  _276
REMARK  105  A    between atoms: _281  and  _283
REMARK  106  A    between atoms: _283  and  _284
REMARK  107  A    between atoms: _283  and  _286
REMARK  108  A    between atoms: _286  and  _287
REMARK  109  A    between atoms: _297  and  _299
REMARK  110  A    between atoms: _299  and  _300
REMARK  111  A    between atoms: _299  and  _302
REMARK  112  A    between atoms: _302  and  _303
REMARK  113  A    between atoms: _308  and  _309
REMARK  114  A    between atoms: _311  and  _313
REMARK  115  A    between atoms: _313  and  _314
REMARK  116  A    between atoms: _313  and  _316
REMARK  117  A    between atoms: _316  and  _317
REMARK  118  A    between atoms: _322  and  _324
REMARK  119  A    between atoms: _324  and  _325
REMARK  120  A    between atoms: _324  and  _327
REMARK  121  A    between atoms: _327  and  _328
REMARK                            x       y       z     vdW  Elec       q    Type
REMARK                         _______ _______ _______ _____ _____    ______ ____
ROOT
ATOM      1  O   HOH     1      14.530  39.056  35.839  0.00  0.00    +0.000 OA
ENDROOT
TORSDOF 0
REMARK  Name = ../refined-set-2016/1ai7/1ai7_pocket.pdb
REMARK  121 active torsions:
REMARK  status: ('A' for Active; 'I' for Inactive)
REMARK    1  A    between atoms: _1  and  _3
REMARK    2  A    between atoms: _3  and  _4
REMARK    3  A    between atoms: _3  and  _6
REMARK    4  A    between atoms: _6  and  _7
REMARK    5  A    between atoms: _10  and  _12
REMARK    6  A    between atoms: _12  and  _13
REMARK    7  A    between atoms: _12  and  _15
REMARK    8  A    between atoms: _15  and  _16
REMARK    9  A    between atoms: _16  and  _17
REMARK   10  A    between atoms: _19  and  _21
REMARK   11  A    between atoms: _21  and  _22
REMARK   12  A    between atoms: _21  and  _24
REMARK   13  A    between atoms: _24  and  _25
REMARK   14  A    between atoms: _25  and  _26
REMARK   15  A    between atoms: _26  and  _27
REMARK   16  A    between atoms: _36  and  _38
REMARK   17  A    between atoms: _38  and  _39
REMARK   18  A    between atoms: _38  and  _41
REMARK   19  A    between atoms: _41  and  _42
REMARK   20  A    between atoms: _48  and  _50
REMARK   21  A    between atoms: _50  and  _51
REMARK   22  A    between atoms: _50  and  _53
REMARK   23  A    between atoms: _53  and  _54
REMARK   24  A    between atoms: _56  and  _60
REMARK   25  A    between atoms: _60  and  _61
REMARK   26  A    between atoms: _60  and  _63
REMARK   27  A    between atoms: _63  and  _64
REMARK   28  A    between atoms: _66  and  _68
REMARK   29  A    between atoms: _68  and  _69
REMARK   30  A    between atoms: _68  and  _71
REMARK   31  A    between atoms: _71  and  _72
REMARK   32  A    between atoms: _77  and  _79
REMARK   33  A    between atoms: _79  and  _80
REMARK   34  A    between atoms: _79  and  _82
REMARK   35  A    between atoms: _82  and  _83
REMARK   36  A    between atoms: _88  and  _90
REMARK   37  A    between atoms: _90  and  _91
REMARK   38  A    between atoms: _94  and  _95
REMARK   39  A    between atoms: _100  and  _102
REMARK   40  A    between atoms: _102  and  _103
REMARK   41  A    between atoms: _102  and  _105
REMARK   42  A    between atoms: _105  and  _106
REMARK   43  A    between atoms: _106  and  _107
REMARK   44  A    between atoms: _112  and  _114
REMARK   45  A    between atoms: _114  and  _115
REMARK   46  A    between atoms: _114  and  _117
REMARK   47  A    between atoms: _117  and  _118
REMARK   48  A    between atoms: _124  and  _126
REMARK   49  A    between atoms: _126  and  _127
REMARK   50  A    between atoms: _126  and  _129
REMARK   51  A    between atoms: _129  and  _130
REMARK   52  A    between atoms: _135  and  _136
REMARK   53  A    between atoms: _139  and  _140
REMARK   54  A    between atoms: _145  and  _147
REMARK   55  A    between atoms: _147  and  _148
REMARK   56  A    between atoms: _147  and  _150
REMARK   57  A    between atoms: _150  and  _151
REMARK   58  A    between atoms: _156  and  _157
REMARK   59  A    between atoms: _159  and  _161
REMARK   60  A    between atoms: _161  and  _162
REMARK   61  A    between atoms: _161  and  _164
REMARK   62  A    between atoms: _167  and  _169
REMARK   63  A    between atoms: _169  and  _170
REMARK   64  A    between atoms: _169  and  _172
REMARK   65  A    between atoms: _172  and  _173
REMARK   66  A    between atoms: _179  and  _181
REMARK   67  A    between atoms: _181  and  _182
REMARK   68  A    between atoms: _184  and  _186
REMARK   69  A    between atoms: _186  and  _187
REMARK   70  A    between atoms: _186  and  _189
REMARK   71  A    between atoms: _189  and  _190
REMARK   72  A    between atoms: _192  and  _194
REMARK   73  A    between atoms: _194  and  _195
REMARK   74  A    between atoms: _194  and  _197
REMARK   75  A    between atoms: _197  and  _198
REMARK   76  A    between atoms: _201  and  _203
REMARK   77  A    between atoms: _203  and  _204
REMARK   78  A    between atoms: _207  and  _209
REMARK   79  A    between atoms: _209  and  _210
REMARK   80  A    between atoms: _212  and  _214
REMARK   81  A    between atoms: _214  and  _215
REMARK   82  A    between atoms: _214  and  _217
REMARK   83  A    between atoms: _217  and  _218
REMARK   84  A    between atoms: _224  and  _226
REMARK   85  A    between atoms: _226  and  _227
REMARK   86  A    between atoms: _226  and  _229
REMARK   87  A    between atoms: _229  and  _230
REMARK   88  A    between atoms: _240  and  _242
REMARK   89  A    between atoms: _242  and  _243
REMARK   90  A    between atoms: _242  and  _245
REMARK   91  A    between atoms: _245  and  _246
REMARK   92  A    between atoms: _246  and  _247
REMARK   93  A    between atoms: _252  and  _254
REMARK   94  A    between atoms: _254  and  _255
REMARK   95  A    between atoms: _254  and  _257
REMARK   96  A    between atoms: _257  and  _258
REMARK   97  A    between atoms: _261  and  _263
REMARK   98  A    between atoms: _263  and  _264
REMARK   99  A    between atoms: _263  and  _266
REMARK  100  A    between atoms: _266  and  _267
REMARK  101  A    between atoms: _270  and  _272
REMARK  102  A    between atoms: _272  and  _273
REMARK  103  A    between atoms: _272  and  _275
REMARK  104  A    between atoms: _275  and  _276
REMARK  105  A    between atoms: _281  and  _283
REMARK  106  A    between atoms: _283  and  _284
REMARK  107  A    between atoms: _283  and  _286
REMARK  108  A    between atoms: _286  and  _287
REMARK  109  A    between atoms: _297  and  _299
REMARK  110  A    between atoms: _299  and  _300
REMARK  111  A    between atoms: _299  and  _302
REMARK  112  A    between atoms: _302  and  _303
REMARK  113  A    between atoms: _308  and  _309
REMARK  114  A    between atoms: _311  and  _313
REMARK  115  A    between atoms: _313  and  _314
REMARK  116  A    between atoms: _313  and  _316
REMARK  117  A    between atoms: _316  and  _317
REMARK  118  A    between atoms: _322  and  _324
REMARK  119  A    between atoms: _324  and  _325
REMARK  120  A    between atoms: _324  and  _327
REMARK  121  A    between atoms: _327  and  _328
REMARK                            x       y       z     vdW  Elec       q    Type
REMARK                         _______ _______ _______ _____ _____    ______ ____
ROOT
ATOM      1  O   HOH     1      14.212  30.344  32.720  0.00  0.00    +0.000 OA
ENDROOT
TORSDOF 0
REMARK  Name = ../refined-set-2016/1ai7/1ai7_pocket.pdb
REMARK  121 active torsions:
REMARK  status: ('A' for Active; 'I' for Inactive)
REMARK    1  A    between atoms: _1  and  _3
REMARK    2  A    between atoms: _3  and  _4
REMARK    3  A    between atoms: _3  and  _6
REMARK    4  A    between atoms: _6  and  _7
REMARK    5  A    between atoms: _10  and  _12
REMARK    6  A    between atoms: _12  and  _13
REMARK    7  A    between atoms: _12  and  _15
REMARK    8  A    between atoms: _15  and  _16
REMARK    9  A    between atoms: _16  and  _17
REMARK   10  A    between atoms: _19  and  _21
REMARK   11  A    between atoms: _21  and  _22
REMARK   12  A    between atoms: _21  and  _24
REMARK   13  A    between atoms: _24  and  _25
REMARK   14  A    between atoms: _25  and  _26
REMARK   15  A    between atoms: _26  and  _27
REMARK   16  A    between atoms: _36  and  _38
REMARK   17  A    between atoms: _38  and  _39
REMARK   18  A    between atoms: _38  and  _41
REMARK   19  A    between atoms: _41  and  _42
REMARK   20  A    between atoms: _48  and  _50
REMARK   21  A    between atoms: _50  and  _51
REMARK   22  A    between atoms: _50  and  _53
REMARK   23  A    between atoms: _53  and  _54
REMARK   24  A    between atoms: _56  and  _60
REMARK   25  A    between atoms: _60  and  _61
REMARK   26  A    between atoms: _60  and  _63
REMARK   27  A    between atoms: _63  and  _64
REMARK   28  A    between atoms: _66  and  _68
REMARK   29  A    between atoms: _68  and  _69
REMARK   30  A    between atoms: _68  and  _71
REMARK   31  A    between atoms: _71  and  _72
REMARK   32  A    between atoms: _77  and  _79
REMARK   33  A    between atoms: _79  and  _80
REMARK   34  A    between atoms: _79  and  _82
REMARK   35  A    between atoms: _82  and  _83
REMARK   36  A    between atoms: _88  and  _90
REMARK   37  A    between atoms: _90  and  _91
REMARK   38  A    between atoms: _94  and  _95
REMARK   39  A    between atoms: _100  and  _102
REMARK   40  A    between atoms: _102  and  _103
REMARK   41  A    between atoms: _102  and  _105
REMARK   42  A    between atoms: _105  and  _106
REMARK   43  A    between atoms: _106  and  _107
REMARK   44  A    between atoms: _112  and  _114
REMARK   45  A    between atoms: _114  and  _115
REMARK   46  A    between atoms: _114  and  _117
REMARK   47  A    between atoms: _117  and  _118
REMARK   48  A    between atoms: _124  and  _126
REMARK   49  A    between atoms: _126  and  _127
REMARK   50  A    between atoms: _126  and  _129
REMARK   51  A    between atoms: _129  and  _130
REMARK   52  A    between atoms: _135  and  _136
REMARK   53  A    between atoms: _139  and  _140
REMARK   54  A    between atoms: _145  and  _147
REMARK   55  A    between atoms: _147  and  _148
REMARK   56  A    between atoms: _147  and  _150
REMARK   57  A    between atoms: _150  and  _151
REMARK   58  A    between atoms: _156  and  _157
REMARK   59  A    between atoms: _159  and  _161
REMARK   60  A    between atoms: _161  and  _162
REMARK   61  A    between atoms: _161  and  _164
REMARK   62  A    between atoms: _167  and  _169
REMARK   63  A    between atoms: _169  and  _170
REMARK   64  A    between atoms: _169  and  _172
REMARK   65  A    between atoms: _172  and  _173
REMARK   66  A    between atoms: _179  and  _181
REMARK   67  A    between atoms: _181  and  _182
REMARK   68  A    between atoms: _184  and  _186
REMARK   69  A    between atoms: _186  and  _187
REMARK   70  A    between atoms: _186  and  _189
REMARK   71  A    between atoms: _189  and  _190
REMARK   72  A    between atoms: _192  and  _194
REMARK   73  A    between atoms: _194  and  _195
REMARK   74  A    between atoms: _194  and  _197
REMARK   75  A    between atoms: _197  and  _198
REMARK   76  A    between atoms: _201  and  _203
REMARK   77  A    between atoms: _203  and  _204
REMARK   78  A    between atoms: _207  and  _209
REMARK   79  A    between atoms: _209  and  _210
REMARK   80  A    between atoms: _212  and  _214
REMARK   81  A    between atoms: _214  and  _215
REMARK   82  A    between atoms: _214  and  _217
REMARK   83  A    between atoms: _217  and  _218
REMARK   84  A    between atoms: _224  and  _226
REMARK   85  A    between atoms: _226  and  _227
REMARK   86  A    between atoms: _226  and  _229
REMARK   87  A    between atoms: _229  and  _230
REMARK   88  A    between atoms: _240  and  _242
REMARK   89  A    between atoms: _242  and  _243
REMARK   90  A    between atoms: _242  and  _245
REMARK   91  A    between atoms: _245  and  _246
REMARK   92  A    between atoms: _246  and  _247
REMARK   93  A    between atoms: _252  and  _254
REMARK   94  A    between atoms: _254  and  _255
REMARK   95  A    between atoms: _254  and  _257
REMARK   96  A    between atoms: _257  and  _258
REMARK   97  A    between atoms: _261  and  _263
REMARK   98  A    between atoms: _263  and  _264
REMARK   99  A    between atoms: _263  and  _266
REMARK  100  A    between atoms: _266  and  _267
REMARK  101  A    between atoms: _270  and  _272
REMARK  102  A    between atoms: _272  and  _273
REMARK  103  A    between atoms: _272  and  _275
REMARK  104  A    between atoms: _275  and  _276
REMARK  105  A    between atoms: _281  and  _283
REMARK  106  A    between atoms: _283  and  _284
REMARK  107  A    between atoms: _283  and  _286
REMARK  108  A    between atoms: _286  and  _287
REMARK  109  A    between atoms: _297  and  _299
REMARK  110  A    between atoms: _299  and  _300
REMARK  111  A    between atoms: _299  and  _302
REMARK  112  A    between atoms: _302  and  _303
REMARK  113  A    between atoms: _308  and  _309
REMARK  114  A    between atoms: _311  and  _313
REMARK  115  A    between atoms: _313  and  _314
REMARK  116  A    between atoms: _313  and  _316
REMARK  117  A    between atoms: _316  and  _317
REMARK  118  A    between atoms: _322  and  _324
REMARK  119  A    between atoms: _324  and  _325
REMARK  120  A    between atoms: _324  and  _327
REMARK  121  A    between atoms: _327  and  _328
REMARK                            x       y       z     vdW  Elec       q    Type
REMARK                         _______ _______ _______ _____ _____    ______ ____
ROOT
ATOM      1  O   HOH     1       5.021  34.729  28.020  0.00  0.00    +0.000 OA
ENDROOT
TORSDOF 0
REMARK  Name = ../refined-set-2016/1ai7/1ai7_pocket.pdb
REMARK  121 active torsions:
REMARK  status: ('A' for Active; 'I' for Inactive)
REMARK    1  A    between atoms: _1  and  _3
REMARK    2  A    between atoms: _3  and  _4
REMARK    3  A    between atoms: _3  and  _6
REMARK    4  A    between atoms: _6  and  _7
REMARK    5  A    between atoms: _10  and  _12
REMARK    6  A    between atoms: _12  and  _13
REMARK    7  A    between atoms: _12  and  _15
REMARK    8  A    between atoms: _15  and  _16
REMARK    9  A    between atoms: _16  and  _17
REMARK   10  A    between atoms: _19  and  _21
REMARK   11  A    between atoms: _21  and  _22
REMARK   12  A    between atoms: _21  and  _24
REMARK   13  A    between atoms: _24  and  _25
REMARK   14  A    between atoms: _25  and  _26
REMARK   15  A    between atoms: _26  and  _27
REMARK   16  A    between atoms: _36  and  _38
REMARK   17  A    between atoms: _38  and  _39
REMARK   18  A    between atoms: _38  and  _41
REMARK   19  A    between atoms: _41  and  _42
REMARK   20  A    between atoms: _48  and  _50
REMARK   21  A    between atoms: _50  and  _51
REMARK   22  A    between atoms: _50  and  _53
REMARK   23  A    between atoms: _53  and  _54
REMARK   24  A    between atoms: _56  and  _60
REMARK   25  A    between atoms: _60  and  _61
REMARK   26  A    between atoms: _60  and  _63
REMARK   27  A    between atoms: _63  and  _64
REMARK   28  A    between atoms: _66  and  _68
REMARK   29  A    between atoms: _68  and  _69
REMARK   30  A    between atoms: _68  and  _71
REMARK   31  A    between atoms: _71  and  _72
REMARK   32  A    between atoms: _77  and  _79
REMARK   33  A    between atoms: _79  and  _80
REMARK   34  A    between atoms: _79  and  _82
REMARK   35  A    between atoms: _82  and  _83
REMARK   36  A    between atoms: _88  and  _90
REMARK   37  A    between atoms: _90  and  _91
REMARK   38  A    between atoms: _94  and  _95
REMARK   39  A    between atoms: _100  and  _102
REMARK   40  A    between atoms: _102  and  _103
REMARK   41  A    between atoms: _102  and  _105
REMARK   42  A    between atoms: _105  and  _106
REMARK   43  A    between atoms: _106  and  _107
REMARK   44  A    between atoms: _112  and  _114
REMARK   45  A    between atoms: _114  and  _115
REMARK   46  A    between atoms: _114  and  _117
REMARK   47  A    between atoms: _117  and  _118
REMARK   48  A    between atoms: _124  and  _126
REMARK   49  A    between atoms: _126  and  _127
REMARK   50  A    between atoms: _126  and  _129
REMARK   51  A    between atoms: _129  and  _130
REMARK   52  A    between atoms: _135  and  _136
REMARK   53  A    between atoms: _139  and  _140
REMARK   54  A    between atoms: _145  and  _147
REMARK   55  A    between atoms: _147  and  _148
REMARK   56  A    between atoms: _147  and  _150
REMARK   57  A    between atoms: _150  and  _151
REMARK   58  A    between atoms: _156  and  _157
REMARK   59  A    between atoms: _159  and  _161
REMARK   60  A    between atoms: _161  and  _162
REMARK   61  A    between atoms: _161  and  _164
REMARK   62  A    between atoms: _167  and  _169
REMARK   63  A    between atoms: _169  and  _170
REMARK   64  A    between atoms: _169  and  _172
REMARK   65  A    between atoms: _172  and  _173
REMARK   66  A    between atoms: _179  and  _181
REMARK   67  A    between atoms: _181  and  _182
REMARK   68  A    between atoms: _184  and  _186
REMARK   69  A    between atoms: _186  and  _187
REMARK   70  A    between atoms: _186  and  _189
REMARK   71  A    between atoms: _189  and  _190
REMARK   72  A    between atoms: _192  and  _194
REMARK   73  A    between atoms: _194  and  _195
REMARK   74  A    between atoms: _194  and  _197
REMARK   75  A    between atoms: _197  and  _198
REMARK   76  A    between atoms: _201  and  _203
REMARK   77  A    between atoms: _203  and  _204
REMARK   78  A    between atoms: _207  and  _209
REMARK   79  A    between atoms: _209  and  _210
REMARK   80  A    between atoms: _212  and  _214
REMARK   81  A    between atoms: _214  and  _215
REMARK   82  A    between atoms: _214  and  _217
REMARK   83  A    between atoms: _217  and  _218
REMARK   84  A    between atoms: _224  and  _226
REMARK   85  A    between atoms: _226  and  _227
REMARK   86  A    between atoms: _226  and  _229
REMARK   87  A    between atoms: _229  and  _230
REMARK   88  A    between atoms: _240  and  _242
REMARK   89  A    between atoms: _242  and  _243
REMARK   90  A    between atoms: _242  and  _245
REMARK   91  A    between atoms: _245  and  _246
REMARK   92  A    between atoms: _246  and  _247
REMARK   93  A    between atoms: _252  and  _254
REMARK   94  A    between atoms: _254  and  _255
REMARK   95  A    between atoms: _254  and  _257
REMARK   96  A    between atoms: _257  and  _258
REMARK   97  A    between atoms: _261  and  _263
REMARK   98  A    between atoms: _263  and  _264
REMARK   99  A    between atoms: _263  and  _266
REMARK  100  A    between atoms: _266  and  _267
REMARK  101  A    between atoms: _270  and  _272
REMARK  102  A    between atoms: _272  and  _273
REMARK  103  A    between atoms: _272  and  _275
REMARK  104  A    between atoms: _275  and  _276
REMARK  105  A    between atoms: _281  and  _283
REMARK  106  A    between atoms: _283  and  _284
REMARK  107  A    between atoms: _283  and  _286
REMARK  108  A    between atoms: _286  and  _287
REMARK  109  A    between atoms: _297  and  _299
REMARK  110  A    between atoms: _299  and  _300
REMARK  111  A    between atoms: _299  and  _302
REMARK  112  A    between atoms: _302  and  _303
REMARK  113  A    between atoms: _308  and  _309
REMARK  114  A    between atoms: _311  and  _313
REMARK  115  A    between atoms: _313  and  _314
REMARK  116  A    between atoms: _313  and  _316
REMARK  117  A    between atoms: _316  and  _317
REMARK  118  A    between atoms: _322  and  _324
REMARK  119  A    between atoms: _324  and  _325
REMARK  120  A    between atoms: _324  and  _327
REMARK  121  A    between atoms: _327  and  _328
REMARK                            x       y       z     vdW  Elec       q    Type
REMARK                         _______ _______ _______ _____ _____    ______ ____
ROOT
ATOM      1  O   HOH     1      15.614  41.489  38.537  0.00  0.00    +0.000 OA
ENDROOT
TORSDOF 0
