REMARK  Name = ../refined-set-2016/4r75/4r75_pocket.pdb
REMARK  227 active torsions:
REMARK  status: ('A' for Active; 'I' for Inactive)
REMARK    1  A    between atoms: _1  and  _3
REMARK    2  A    between atoms: _3  and  _4
REMARK    3  A    between atoms: _3  and  _6
REMARK    4  A    between atoms: _8  and  _10
REMARK    5  A    between atoms: _10  and  _11
REMARK    6  A    between atoms: _10  and  _13
REMARK    7  A    between atoms: _13  and  _14
REMARK    8  A    between atoms: _16  and  _18
REMARK    9  A    between atoms: _18  and  _19
REMARK   10  A    between atoms: _22  and  _24
REMARK   11  A    between atoms: _24  and  _25
REMARK   12  A    between atoms: _24  and  _27
REMARK   13  A    between atoms: _27  and  _28
REMARK   14  A    between atoms: _31  and  _33
REMARK   15  A    between atoms: _33  and  _34
REMARK   16  A    between atoms: _33  and  _36
REMARK   17  A    between atoms: _36  and  _37
REMARK   18  A    between atoms: _42  and  _44
REMARK   19  A    between atoms: _44  and  _45
REMARK   20  A    between atoms: _44  and  _47
REMARK   21  A    between atoms: _47  and  _48
REMARK   22  A    between atoms: _48  and  _49
REMARK   23  A    between atoms: _51  and  _53
REMARK   24  A    between atoms: _53  and  _54
REMARK   25  A    between atoms: _53  and  _56
REMARK   26  A    between atoms: _56  and  _57
REMARK   27  A    between atoms: _57  and  _58
REMARK   28  A    between atoms: _58  and  _59
REMARK   29  A    between atoms: _68  and  _70
REMARK   30  A    between atoms: _70  and  _71
REMARK   31  A    between atoms: _70  and  _73
REMARK   32  A    between atoms: _73  and  _74
REMARK   33  A    between atoms: _79  and  _81
REMARK   34  A    between atoms: _81  and  _82
REMARK   35  A    between atoms: _84  and  _86
REMARK   36  A    between atoms: _86  and  _87
REMARK   37  A    between atoms: _86  and  _89
REMARK   38  A    between atoms: _89  and  _90
REMARK   39  A    between atoms: _92  and  _94
REMARK   40  A    between atoms: _94  and  _95
REMARK   41  A    between atoms: _97  and  _99
REMARK   42  A    between atoms: _99  and  _100
REMARK   43  A    between atoms: _99  and  _102
REMARK   44  A    between atoms: _102  and  _103
REMARK   45  A    between atoms: _105  and  _107
REMARK   46  A    between atoms: _107  and  _108
REMARK   47  A    between atoms: _107  and  _110
REMARK   48  A    between atoms: _110  and  _111
REMARK   49  A    between atoms: _114  and  _116
REMARK   50  A    between atoms: _116  and  _117
REMARK   51  A    between atoms: _116  and  _119
REMARK   52  A    between atoms: _119  and  _120
REMARK   53  A    between atoms: _126  and  _128
REMARK   54  A    between atoms: _128  and  _129
REMARK   55  A    between atoms: _128  and  _131
REMARK   56  A    between atoms: _131  and  _132
REMARK   57  A    between atoms: _142  and  _144
REMARK   58  A    between atoms: _144  and  _145
REMARK   59  A    between atoms: _144  and  _147
REMARK   60  A    between atoms: _147  and  _148
REMARK   61  A    between atoms: _153  and  _154
REMARK   62  A    between atoms: _156  and  _158
REMARK   63  A    between atoms: _158  and  _159
REMARK   64  A    between atoms: _161  and  _163
REMARK   65  A    between atoms: _163  and  _164
REMARK   66  A    between atoms: _166  and  _168
REMARK   67  A    between atoms: _168  and  _169
REMARK   68  A    between atoms: _168  and  _171
REMARK   69  A    between atoms: _171  and  _172
REMARK   70  A    between atoms: _175  and  _177
REMARK   71  A    between atoms: _177  and  _178
REMARK   72  A    between atoms: _177  and  _180
REMARK   73  A    between atoms: _180  and  _181
REMARK   74  A    between atoms: _184  and  _186
REMARK   75  A    between atoms: _186  and  _187
REMARK   76  A    between atoms: _186  and  _189
REMARK   77  A    between atoms: _189  and  _190
REMARK   78  A    between atoms: _194  and  _195
REMARK   79  A    between atoms: _200  and  _202
REMARK   80  A    between atoms: _202  and  _203
REMARK   81  A    between atoms: _202  and  _205
REMARK   82  A    between atoms: _205  and  _206
REMARK   83  A    between atoms: _206  and  _207
REMARK   84  A    between atoms: _212  and  _214
REMARK   85  A    between atoms: _214  and  _215
REMARK   86  A    between atoms: _214  and  _217
REMARK   87  A    between atoms: _220  and  _222
REMARK   88  A    between atoms: _222  and  _223
REMARK   89  A    between atoms: _222  and  _225
REMARK   90  A    between atoms: _225  and  _226
REMARK   91  A    between atoms: _231  and  _232
REMARK   92  A    between atoms: _234  and  _236
REMARK   93  A    between atoms: _236  and  _237
REMARK   94  A    between atoms: _236  and  _239
REMARK   95  A    between atoms: _239  and  _240
REMARK   96  A    between atoms: _243  and  _245
REMARK   97  A    between atoms: _245  and  _246
REMARK   98  A    between atoms: _248  and  _250
REMARK   99  A    between atoms: _250  and  _251
REMARK  100  A    between atoms: _250  and  _253
REMARK  101  A    between atoms: _253  and  _254
REMARK  102  A    between atoms: _257  and  _259
REMARK  103  A    between atoms: _259  and  _260
REMARK  104  A    between atoms: _263  and  _265
REMARK  105  A    between atoms: _265  and  _266
REMARK  106  A    between atoms: _265  and  _268
REMARK  107  A    between atoms: _268  and  _269
REMARK  108  A    between atoms: _272  and  _274
REMARK  109  A    between atoms: _274  and  _275
REMARK  110  A    between atoms: _274  and  _277
REMARK  111  A    between atoms: _277  and  _278
REMARK  112  A    between atoms: _280  and  _282
REMARK  113  A    between atoms: _282  and  _283
REMARK  114  A    between atoms: _282  and  _285
REMARK  115  A    between atoms: _285  and  _286
REMARK  116  A    between atoms: _288  and  _290
REMARK  117  A    between atoms: _290  and  _291
REMARK  118  A    between atoms: _293  and  _295
REMARK  119  A    between atoms: _295  and  _296
REMARK  120  A    between atoms: _295  and  _298
REMARK  121  A    between atoms: _298  and  _299
REMARK  122  A    between atoms: _302  and  _304
REMARK  123  A    between atoms: _304  and  _305
REMARK  124  A    between atoms: _308  and  _310
REMARK  125  A    between atoms: _310  and  _311
REMARK  126  A    between atoms: _310  and  _313
REMARK  127  A    between atoms: _313  and  _314
REMARK  128  A    between atoms: _319  and  _320
REMARK  129  A    between atoms: _322  and  _324
REMARK  130  A    between atoms: _324  and  _325
REMARK  131  A    between atoms: _324  and  _327
REMARK  132  A    between atoms: _327  and  _328
REMARK  133  A    between atoms: _331  and  _333
REMARK  134  A    between atoms: _333  and  _334
REMARK  135  A    between atoms: _337  and  _339
REMARK  136  A    between atoms: _339  and  _340
REMARK  137  A    between atoms: _339  and  _342
REMARK  138  A    between atoms: _342  and  _343
REMARK  139  A    between atoms: _346  and  _348
REMARK  140  A    between atoms: _348  and  _349
REMARK  141  A    between atoms: _348  and  _351
REMARK  142  A    between atoms: _351  and  _352
REMARK  143  A    between atoms: _352  and  _353
REMARK  144  A    between atoms: _353  and  _354
REMARK  145  A    between atoms: _354  and  _355
REMARK  146  A    between atoms: _359  and  _361
REMARK  147  A    between atoms: _361  and  _362
REMARK  148  A    between atoms: _361  and  _364
REMARK  149  A    between atoms: _364  and  _365
REMARK  150  A    between atoms: _367  and  _369
REMARK  151  A    between atoms: _369  and  _370
REMARK  152  A    between atoms: _372  and  _374
REMARK  153  A    between atoms: _374  and  _375
REMARK  154  A    between atoms: _374  and  _377
REMARK  155  A    between atoms: _377  and  _378
REMARK  156  A    between atoms: _381  and  _383
REMARK  157  A    between atoms: _383  and  _384
REMARK  158  A    between atoms: _383  and  _386
REMARK  159  A    between atoms: _386  and  _387
REMARK  160  A    between atoms: _390  and  _392
REMARK  161  A    between atoms: _392  and  _393
REMARK  162  A    between atoms: _396  and  _398
REMARK  163  A    between atoms: _398  and  _399
REMARK  164  A    between atoms: _401  and  _403
REMARK  165  A    between atoms: _403  and  _404
REMARK  166  A    between atoms: _403  and  _406
REMARK  167  A    between atoms: _406  and  _407
REMARK  168  A    between atoms: _413  and  _415
REMARK  169  A    between atoms: _415  and  _416
REMARK  170  A    between atoms: _415  and  _418
REMARK  171  A    between atoms: _418  and  _419
REMARK  172  A    between atoms: _422  and  _424
REMARK  173  A    between atoms: _424  and  _425
REMARK  174  A    between atoms: _424  and  _427
REMARK  175  A    between atoms: _427  and  _428
REMARK  176  A    between atoms: _433  and  _435
REMARK  177  A    between atoms: _435  and  _436
REMARK  178  A    between atoms: _435  and  _438
REMARK  179  A    between atoms: _438  and  _439
REMARK  180  A    between atoms: _442  and  _444
REMARK  181  A    between atoms: _444  and  _445
REMARK  182  A    between atoms: _444  and  _447
REMARK  183  A    between atoms: _447  and  _448
REMARK  184  A    between atoms: _453  and  _454
REMARK  185  A    between atoms: _456  and  _458
REMARK  186  A    between atoms: _458  and  _459
REMARK  187  A    between atoms: _458  and  _461
REMARK  188  A    between atoms: _461  and  _462
REMARK  189  A    between atoms: _465  and  _467
REMARK  190  A    between atoms: _467  and  _468
REMARK  191  A    between atoms: _467  and  _470
REMARK  192  A    between atoms: _470  and  _471
REMARK  193  A    between atoms: _471  and  _472
REMARK  194  A    between atoms: _475  and  _477
REMARK  195  A    between atoms: _477  and  _478
REMARK  196  A    between atoms: _477  and  _480
REMARK  197  A    between atoms: _480  and  _481
REMARK  198  A    between atoms: _484  and  _486
REMARK  199  A    between atoms: _486  and  _487
REMARK  200  A    between atoms: _489  and  _491
REMARK  201  A    between atoms: _491  and  _492
REMARK  202  A    between atoms: _494  and  _496
REMARK  203  A    between atoms: _496  and  _497
REMARK  204  A    between atoms: _496  and  _499
REMARK  205  A    between atoms: _499  and  _500
REMARK  206  A    between atoms: _500  and  _501
REMARK  207  A    between atoms: _506  and  _508
REMARK  208  A    between atoms: _508  and  _509
REMARK  209  A    between atoms: _512  and  _514
REMARK  210  A    between atoms: _514  and  _515
REMARK  211  A    between atoms: _514  and  _517
REMARK  212  A    between atoms: _517  and  _518
REMARK  213  A    between atoms: _521  and  _523
REMARK  214  A    between atoms: _523  and  _524
REMARK  215  A    between atoms: _523  and  _526
REMARK  216  A    between atoms: _526  and  _527
REMARK  217  A    between atoms: _527  and  _528
REMARK  218  A    between atoms: _533  and  _535
REMARK  219  A    between atoms: _535  and  _536
REMARK  220  A    between atoms: _535  and  _538
REMARK  221  A    between atoms: _538  and  _539
REMARK  222  A    between atoms: _542  and  _544
REMARK  223  A    between atoms: _544  and  _545
REMARK  224  A    between atoms: _544  and  _547
REMARK  225  A    between atoms: _547  and  _548
REMARK  226  A    between atoms: _548  and  _549
REMARK  227  A    between atoms: _549  and  _550
REMARK                            x       y       z     vdW  Elec       q    Type
REMARK                         _______ _______ _______ _____ _____    ______ ____
ROOT
ATOM      1  C   ALA A   3     -18.307  -6.793  12.031  0.00  0.00    +0.241 C 
ATOM      2  N   THR A   4     -18.881  -7.798  12.680  0.00  0.00    -0.295 N 
ATOM      3  H   THR A   4     -18.633  -7.986  13.672  0.00  0.00    +0.150 HD
ATOM      4  O   ALA A   3     -18.549  -6.548  10.845  0.00  0.00    -0.273 OA
ENDROOT
BRANCH   1   5
ATOM      5  CA  ALA A   3     -17.321  -5.920  12.808  0.00  0.00    +0.149 C 
ATOM      6  CB  ALA A   3     -17.957  -5.376  14.081  0.00  0.00    +0.031 C 
BRANCH   5   8
ATOM      7  C   SER A   2     -15.945  -5.022  11.018  0.00  0.00    +0.243 C 
ATOM      8  N   ALA A   3     -16.881  -4.825  11.945  0.00  0.00    -0.297 N 
ATOM      9  H   ALA A   3     -17.304  -3.881  12.056  0.00  0.00    +0.150 HD
ATOM     10  O   SER A   2     -15.254  -6.042  10.964  0.00  0.00    -0.273 OA
BRANCH   7  11
ATOM     11  CA  SER A   2     -15.713  -3.895  10.022  0.00  0.00    +0.178 C 
BRANCH  11  13
ATOM     12  C   CYS A   1     -17.381  -2.238   9.386  0.00  0.00    +0.239 C 
ATOM     13  N   SER A   2     -16.540  -2.723  10.298  0.00  0.00    -0.295 N 
ATOM     14  H   SER A   2     -16.471  -2.258  11.226  0.00  0.00    +0.150 HD
ATOM     15  O   CYS A   1     -17.531  -2.752   8.267  0.00  0.00    -0.274 OA
BRANCH  12  16
ATOM     16  CA  CYS A   1     -18.201  -1.019   9.782  0.00  0.00    +0.156 C 
BRANCH  16  17
ATOM     17  N   CYS A   1     -18.313  -0.092   8.666  0.00  0.00    -0.237 NA
ATOM     18  H   CYS A   1     -18.996  -0.288   7.906  0.00  0.00    +0.142 HD
ENDBRANCH  16  17
BRANCH  16  19
ATOM     19  CB  CYS A   1     -19.589  -1.462  10.230  0.00  0.00    +0.095 C 
ATOM     20  SG  CYS A   1     -19.597  -2.331  11.801  0.00  0.00    -0.080 S 
ENDBRANCH  16  19
ENDBRANCH  12  16
ENDBRANCH  11  13
BRANCH  11  21
ATOM     21  CB  SER A   2     -14.230  -3.527   9.970  0.00  0.00    +0.166 C 
BRANCH  21  22
ATOM     22  OG  SER A   2     -13.952  -2.647   8.888  0.00  0.00    -0.380 OA
ATOM     23  H   SER A   2     -14.198  -3.086   8.035  0.00  0.00    +0.211 HD
ENDBRANCH  21  22
ENDBRANCH  11  21
ENDBRANCH   7  11
ENDBRANCH   5   8
ENDBRANCH   1   5
BRANCH   2  24
ATOM     24  CA  THR A   4     -19.865  -8.644  11.998  0.00  0.00    +0.176 C 
BRANCH  24  25
ATOM     25  C   THR A   4     -21.122  -7.832  11.728  0.00  0.00    +0.243 C 
ATOM     26  O   THR A   4     -21.419  -6.865  12.433  0.00  0.00    -0.273 OA
ATOM     27  N   ASN A   5     -21.887  -8.245  10.721  0.00  0.00    -0.298 N 
ATOM     28  H   ASN A   5     -21.639  -9.115  10.207  0.00  0.00    +0.150 HD
BRANCH  27  29
ATOM     29  CA  ASN A   5     -23.068  -7.489  10.333  0.00  0.00    +0.146 C 
BRANCH  29  30
ATOM     30  C   ASN A   5     -24.050  -7.270  11.483  0.00  0.00    +0.227 C 
ATOM     31  O   ASN A   5     -24.578  -6.169  11.649  0.00  0.00    -0.286 OA
ENDBRANCH  29  30
BRANCH  29  32
ATOM     32  CB  ASN A   5     -23.766  -8.143   9.143  0.00  0.00    +0.112 C 
BRANCH  32  33
ATOM     33  CG  ASN A   5     -24.625  -7.164   8.377  0.00  0.00    +0.222 C 
ATOM     34  ND2 ASN A   5     -25.925  -7.198   8.624  0.00  0.00    -0.329 N 
ATOM     35 HD21 ASN A   5     -26.307  -7.882   9.308  0.00  0.00    +0.145 HD
ATOM     36 HD22 ASN A   5     -26.565  -6.541   8.134  0.00  0.00    +0.145 HD
ATOM     37  OD1 ASN A   5     -24.118  -6.375   7.577  0.00  0.00    -0.275 OA
ENDBRANCH  32  33
ENDBRANCH  29  32
ENDBRANCH  27  29
ENDBRANCH  24  25
BRANCH  24  38
ATOM     38  CB  THR A   4     -20.264  -9.863  12.839  0.00  0.00    +0.137 C 
ATOM     39  CG2 THR A   4     -19.118 -10.889  12.906  0.00  0.00    +0.034 C 
BRANCH  38  40
ATOM     40  OG1 THR A   4     -20.619  -9.425  14.154  0.00  0.00    -0.382 OA
ATOM     41  HG1 THR A   4     -20.878 -10.207  14.703  0.00  0.00    +0.210 HD
ENDBRANCH  38  40
ENDBRANCH  24  38
ENDBRANCH   2  24
TORSDOF 17
REMARK  Name = ../refined-set-2016/4r75/4r75_pocket.pdb
REMARK  227 active torsions:
REMARK  status: ('A' for Active; 'I' for Inactive)
REMARK    1  A    between atoms: _1  and  _3
REMARK    2  A    between atoms: _3  and  _4
REMARK    3  A    between atoms: _3  and  _6
REMARK    4  A    between atoms: _8  and  _10
REMARK    5  A    between atoms: _10  and  _11
REMARK    6  A    between atoms: _10  and  _13
REMARK    7  A    between atoms: _13  and  _14
REMARK    8  A    between atoms: _16  and  _18
REMARK    9  A    between atoms: _18  and  _19
REMARK   10  A    between atoms: _22  and  _24
REMARK   11  A    between atoms: _24  and  _25
REMARK   12  A    between atoms: _24  and  _27
REMARK   13  A    between atoms: _27  and  _28
REMARK   14  A    between atoms: _31  and  _33
REMARK   15  A    between atoms: _33  and  _34
REMARK   16  A    between atoms: _33  and  _36
REMARK   17  A    between atoms: _36  and  _37
REMARK   18  A    between atoms: _42  and  _44
REMARK   19  A    between atoms: _44  and  _45
REMARK   20  A    between atoms: _44  and  _47
REMARK   21  A    between atoms: _47  and  _48
REMARK   22  A    between atoms: _48  and  _49
REMARK   23  A    between atoms: _51  and  _53
REMARK   24  A    between atoms: _53  and  _54
REMARK   25  A    between atoms: _53  and  _56
REMARK   26  A    between atoms: _56  and  _57
REMARK   27  A    between atoms: _57  and  _58
REMARK   28  A    between atoms: _58  and  _59
REMARK   29  A    between atoms: _68  and  _70
REMARK   30  A    between atoms: _70  and  _71
REMARK   31  A    between atoms: _70  and  _73
REMARK   32  A    between atoms: _73  and  _74
REMARK   33  A    between atoms: _79  and  _81
REMARK   34  A    between atoms: _81  and  _82
REMARK   35  A    between atoms: _84  and  _86
REMARK   36  A    between atoms: _86  and  _87
REMARK   37  A    between atoms: _86  and  _89
REMARK   38  A    between atoms: _89  and  _90
REMARK   39  A    between atoms: _92  and  _94
REMARK   40  A    between atoms: _94  and  _95
REMARK   41  A    between atoms: _97  and  _99
REMARK   42  A    between atoms: _99  and  _100
REMARK   43  A    between atoms: _99  and  _102
REMARK   44  A    between atoms: _102  and  _103
REMARK   45  A    between atoms: _105  and  _107
REMARK   46  A    between atoms: _107  and  _108
REMARK   47  A    between atoms: _107  and  _110
REMARK   48  A    between atoms: _110  and  _111
REMARK   49  A    between atoms: _114  and  _116
REMARK   50  A    between atoms: _116  and  _117
REMARK   51  A    between atoms: _116  and  _119
REMARK   52  A    between atoms: _119  and  _120
REMARK   53  A    between atoms: _126  and  _128
REMARK   54  A    between atoms: _128  and  _129
REMARK   55  A    between atoms: _128  and  _131
REMARK   56  A    between atoms: _131  and  _132
REMARK   57  A    between atoms: _142  and  _144
REMARK   58  A    between atoms: _144  and  _145
REMARK   59  A    between atoms: _144  and  _147
REMARK   60  A    between atoms: _147  and  _148
REMARK   61  A    between atoms: _153  and  _154
REMARK   62  A    between atoms: _156  and  _158
REMARK   63  A    between atoms: _158  and  _159
REMARK   64  A    between atoms: _161  and  _163
REMARK   65  A    between atoms: _163  and  _164
REMARK   66  A    between atoms: _166  and  _168
REMARK   67  A    between atoms: _168  and  _169
REMARK   68  A    between atoms: _168  and  _171
REMARK   69  A    between atoms: _171  and  _172
REMARK   70  A    between atoms: _175  and  _177
REMARK   71  A    between atoms: _177  and  _178
REMARK   72  A    between atoms: _177  and  _180
REMARK   73  A    between atoms: _180  and  _181
REMARK   74  A    between atoms: _184  and  _186
REMARK   75  A    between atoms: _186  and  _187
REMARK   76  A    between atoms: _186  and  _189
REMARK   77  A    between atoms: _189  and  _190
REMARK   78  A    between atoms: _194  and  _195
REMARK   79  A    between atoms: _200  and  _202
REMARK   80  A    between atoms: _202  and  _203
REMARK   81  A    between atoms: _202  and  _205
REMARK   82  A    between atoms: _205  and  _206
REMARK   83  A    between atoms: _206  and  _207
REMARK   84  A    between atoms: _212  and  _214
REMARK   85  A    between atoms: _214  and  _215
REMARK   86  A    between atoms: _214  and  _217
REMARK   87  A    between atoms: _220  and  _222
REMARK   88  A    between atoms: _222  and  _223
REMARK   89  A    between atoms: _222  and  _225
REMARK   90  A    between atoms: _225  and  _226
REMARK   91  A    between atoms: _231  and  _232
REMARK   92  A    between atoms: _234  and  _236
REMARK   93  A    between atoms: _236  and  _237
REMARK   94  A    between atoms: _236  and  _239
REMARK   95  A    between atoms: _239  and  _240
REMARK   96  A    between atoms: _243  and  _245
REMARK   97  A    between atoms: _245  and  _246
REMARK   98  A    between atoms: _248  and  _250
REMARK   99  A    between atoms: _250  and  _251
REMARK  100  A    between atoms: _250  and  _253
REMARK  101  A    between atoms: _253  and  _254
REMARK  102  A    between atoms: _257  and  _259
REMARK  103  A    between atoms: _259  and  _260
REMARK  104  A    between atoms: _263  and  _265
REMARK  105  A    between atoms: _265  and  _266
REMARK  106  A    between atoms: _265  and  _268
REMARK  107  A    between atoms: _268  and  _269
REMARK  108  A    between atoms: _272  and  _274
REMARK  109  A    between atoms: _274  and  _275
REMARK  110  A    between atoms: _274  and  _277
REMARK  111  A    between atoms: _277  and  _278
REMARK  112  A    between atoms: _280  and  _282
REMARK  113  A    between atoms: _282  and  _283
REMARK  114  A    between atoms: _282  and  _285
REMARK  115  A    between atoms: _285  and  _286
REMARK  116  A    between atoms: _288  and  _290
REMARK  117  A    between atoms: _290  and  _291
REMARK  118  A    between atoms: _293  and  _295
REMARK  119  A    between atoms: _295  and  _296
REMARK  120  A    between atoms: _295  and  _298
REMARK  121  A    between atoms: _298  and  _299
REMARK  122  A    between atoms: _302  and  _304
REMARK  123  A    between atoms: _304  and  _305
REMARK  124  A    between atoms: _308  and  _310
REMARK  125  A    between atoms: _310  and  _311
REMARK  126  A    between atoms: _310  and  _313
REMARK  127  A    between atoms: _313  and  _314
REMARK  128  A    between atoms: _319  and  _320
REMARK  129  A    between atoms: _322  and  _324
REMARK  130  A    between atoms: _324  and  _325
REMARK  131  A    between atoms: _324  and  _327
REMARK  132  A    between atoms: _327  and  _328
REMARK  133  A    between atoms: _331  and  _333
REMARK  134  A    between atoms: _333  and  _334
REMARK  135  A    between atoms: _337  and  _339
REMARK  136  A    between atoms: _339  and  _340
REMARK  137  A    between atoms: _339  and  _342
REMARK  138  A    between atoms: _342  and  _343
REMARK  139  A    between atoms: _346  and  _348
REMARK  140  A    between atoms: _348  and  _349
REMARK  141  A    between atoms: _348  and  _351
REMARK  142  A    between atoms: _351  and  _352
REMARK  143  A    between atoms: _352  and  _353
REMARK  144  A    between atoms: _353  and  _354
REMARK  145  A    between atoms: _354  and  _355
REMARK  146  A    between atoms: _359  and  _361
REMARK  147  A    between atoms: _361  and  _362
REMARK  148  A    between atoms: _361  and  _364
REMARK  149  A    between atoms: _364  and  _365
REMARK  150  A    between atoms: _367  and  _369
REMARK  151  A    between atoms: _369  and  _370
REMARK  152  A    between atoms: _372  and  _374
REMARK  153  A    between atoms: _374  and  _375
REMARK  154  A    between atoms: _374  and  _377
REMARK  155  A    between atoms: _377  and  _378
REMARK  156  A    between atoms: _381  and  _383
REMARK  157  A    between atoms: _383  and  _384
REMARK  158  A    between atoms: _383  and  _386
REMARK  159  A    between atoms: _386  and  _387
REMARK  160  A    between atoms: _390  and  _392
REMARK  161  A    between atoms: _392  and  _393
REMARK  162  A    between atoms: _396  and  _398
REMARK  163  A    between atoms: _398  and  _399
REMARK  164  A    between atoms: _401  and  _403
REMARK  165  A    between atoms: _403  and  _404
REMARK  166  A    between atoms: _403  and  _406
REMARK  167  A    between atoms: _406  and  _407
REMARK  168  A    between atoms: _413  and  _415
REMARK  169  A    between atoms: _415  and  _416
REMARK  170  A    between atoms: _415  and  _418
REMARK  171  A    between atoms: _418  and  _419
REMARK  172  A    between atoms: _422  and  _424
REMARK  173  A    between atoms: _424  and  _425
REMARK  174  A    between atoms: _424  and  _427
REMARK  175  A    between atoms: _427  and  _428
REMARK  176  A    between atoms: _433  and  _435
REMARK  177  A    between atoms: _435  and  _436
REMARK  178  A    between atoms: _435  and  _438
REMARK  179  A    between atoms: _438  and  _439
REMARK  180  A    between atoms: _442  and  _444
REMARK  181  A    between atoms: _444  and  _445
REMARK  182  A    between atoms: _444  and  _447
REMARK  183  A    between atoms: _447  and  _448
REMARK  184  A    between atoms: _453  and  _454
REMARK  185  A    between atoms: _456  and  _458
REMARK  186  A    between atoms: _458  and  _459
REMARK  187  A    between atoms: _458  and  _461
REMARK  188  A    between atoms: _461  and  _462
REMARK  189  A    between atoms: _465  and  _467
REMARK  190  A    between atoms: _467  and  _468
REMARK  191  A    between atoms: _467  and  _470
REMARK  192  A    between atoms: _470  and  _471
REMARK  193  A    between atoms: _471  and  _472
REMARK  194  A    between atoms: _475  and  _477
REMARK  195  A    between atoms: _477  and  _478
REMARK  196  A    between atoms: _477  and  _480
REMARK  197  A    between atoms: _480  and  _481
REMARK  198  A    between atoms: _484  and  _486
REMARK  199  A    between atoms: _486  and  _487
REMARK  200  A    between atoms: _489  and  _491
REMARK  201  A    between atoms: _491  and  _492
REMARK  202  A    between atoms: _494  and  _496
REMARK  203  A    between atoms: _496  and  _497
REMARK  204  A    between atoms: _496  and  _499
REMARK  205  A    between atoms: _499  and  _500
REMARK  206  A    between atoms: _500  and  _501
REMARK  207  A    between atoms: _506  and  _508
REMARK  208  A    between atoms: _508  and  _509
REMARK  209  A    between atoms: _512  and  _514
REMARK  210  A    between atoms: _514  and  _515
REMARK  211  A    between atoms: _514  and  _517
REMARK  212  A    between atoms: _517  and  _518
REMARK  213  A    between atoms: _521  and  _523
REMARK  214  A    between atoms: _523  and  _524
REMARK  215  A    between atoms: _523  and  _526
REMARK  216  A    between atoms: _526  and  _527
REMARK  217  A    between atoms: _527  and  _528
REMARK  218  A    between atoms: _533  and  _535
REMARK  219  A    between atoms: _535  and  _536
REMARK  220  A    between atoms: _535  and  _538
REMARK  221  A    between atoms: _538  and  _539
REMARK  222  A    between atoms: _542  and  _544
REMARK  223  A    between atoms: _544  and  _545
REMARK  224  A    between atoms: _544  and  _547
REMARK  225  A    between atoms: _547  and  _548
REMARK  226  A    between atoms: _548  and  _549
REMARK  227  A    between atoms: _549  and  _550
REMARK                            x       y       z     vdW  Elec       q    Type
REMARK                         _______ _______ _______ _____ _____    ______ ____
ROOT
ATOM      1  CA  MET A   1     -22.966  -6.110  15.599  0.00  0.00    +0.134 C 
ENDROOT
BRANCH   1   2
ATOM      2  N   MET A   1     -23.488  -7.088  14.649  0.00  0.00    -0.239 NA
ATOM      3  H   MET A   1     -22.840  -7.762  14.193  0.00  0.00    +0.142 HD
ENDBRANCH   1   2
BRANCH   1   4
ATOM      4  C   MET A   1     -23.076  -4.706  15.028  0.00  0.00    +0.224 C 
ATOM      5  O   MET A   1     -23.495  -3.778  15.736  0.00  0.00    -0.287 OA
ENDBRANCH   1   4
BRANCH   1   6
ATOM      6  CB  MET A   1     -21.518  -6.405  16.008  0.00  0.00    +0.037 C 
BRANCH   6   7
ATOM      7  CG  MET A   1     -20.929  -5.301  16.904  0.00  0.00    +0.059 C 
BRANCH   7   8
ATOM      8  SD  MET A   1     -19.271  -5.627  17.549  0.00  0.00    -0.139 S 
ATOM      9  CE  MET A   1     -18.884  -4.088  18.380  0.00  0.00    +0.069 C 
ENDBRANCH   7   8
ENDBRANCH   6   7
ENDBRANCH   1   6
TORSDOF 5
REMARK  Name = ../refined-set-2016/4r75/4r75_pocket.pdb
REMARK  227 active torsions:
REMARK  status: ('A' for Active; 'I' for Inactive)
REMARK    1  A    between atoms: _1  and  _3
REMARK    2  A    between atoms: _3  and  _4
REMARK    3  A    between atoms: _3  and  _6
REMARK    4  A    between atoms: _8  and  _10
REMARK    5  A    between atoms: _10  and  _11
REMARK    6  A    between atoms: _10  and  _13
REMARK    7  A    between atoms: _13  and  _14
REMARK    8  A    between atoms: _16  and  _18
REMARK    9  A    between atoms: _18  and  _19
REMARK   10  A    between atoms: _22  and  _24
REMARK   11  A    between atoms: _24  and  _25
REMARK   12  A    between atoms: _24  and  _27
REMARK   13  A    between atoms: _27  and  _28
REMARK   14  A    between atoms: _31  and  _33
REMARK   15  A    between atoms: _33  and  _34
REMARK   16  A    between atoms: _33  and  _36
REMARK   17  A    between atoms: _36  and  _37
REMARK   18  A    between atoms: _42  and  _44
REMARK   19  A    between atoms: _44  and  _45
REMARK   20  A    between atoms: _44  and  _47
REMARK   21  A    between atoms: _47  and  _48
REMARK   22  A    between atoms: _48  and  _49
REMARK   23  A    between atoms: _51  and  _53
REMARK   24  A    between atoms: _53  and  _54
REMARK   25  A    between atoms: _53  and  _56
REMARK   26  A    between atoms: _56  and  _57
REMARK   27  A    between atoms: _57  and  _58
REMARK   28  A    between atoms: _58  and  _59
REMARK   29  A    between atoms: _68  and  _70
REMARK   30  A    between atoms: _70  and  _71
REMARK   31  A    between atoms: _70  and  _73
REMARK   32  A    between atoms: _73  and  _74
REMARK   33  A    between atoms: _79  and  _81
REMARK   34  A    between atoms: _81  and  _82
REMARK   35  A    between atoms: _84  and  _86
REMARK   36  A    between atoms: _86  and  _87
REMARK   37  A    between atoms: _86  and  _89
REMARK   38  A    between atoms: _89  and  _90
REMARK   39  A    between atoms: _92  and  _94
REMARK   40  A    between atoms: _94  and  _95
REMARK   41  A    between atoms: _97  and  _99
REMARK   42  A    between atoms: _99  and  _100
REMARK   43  A    between atoms: _99  and  _102
REMARK   44  A    between atoms: _102  and  _103
REMARK   45  A    between atoms: _105  and  _107
REMARK   46  A    between atoms: _107  and  _108
REMARK   47  A    between atoms: _107  and  _110
REMARK   48  A    between atoms: _110  and  _111
REMARK   49  A    between atoms: _114  and  _116
REMARK   50  A    between atoms: _116  and  _117
REMARK   51  A    between atoms: _116  and  _119
REMARK   52  A    between atoms: _119  and  _120
REMARK   53  A    between atoms: _126  and  _128
REMARK   54  A    between atoms: _128  and  _129
REMARK   55  A    between atoms: _128  and  _131
REMARK   56  A    between atoms: _131  and  _132
REMARK   57  A    between atoms: _142  and  _144
REMARK   58  A    between atoms: _144  and  _145
REMARK   59  A    between atoms: _144  and  _147
REMARK   60  A    between atoms: _147  and  _148
REMARK   61  A    between atoms: _153  and  _154
REMARK   62  A    between atoms: _156  and  _158
REMARK   63  A    between atoms: _158  and  _159
REMARK   64  A    between atoms: _161  and  _163
REMARK   65  A    between atoms: _163  and  _164
REMARK   66  A    between atoms: _166  and  _168
REMARK   67  A    between atoms: _168  and  _169
REMARK   68  A    between atoms: _168  and  _171
REMARK   69  A    between atoms: _171  and  _172
REMARK   70  A    between atoms: _175  and  _177
REMARK   71  A    between atoms: _177  and  _178
REMARK   72  A    between atoms: _177  and  _180
REMARK   73  A    between atoms: _180  and  _181
REMARK   74  A    between atoms: _184  and  _186
REMARK   75  A    between atoms: _186  and  _187
REMARK   76  A    between atoms: _186  and  _189
REMARK   77  A    between atoms: _189  and  _190
REMARK   78  A    between atoms: _194  and  _195
REMARK   79  A    between atoms: _200  and  _202
REMARK   80  A    between atoms: _202  and  _203
REMARK   81  A    between atoms: _202  and  _205
REMARK   82  A    between atoms: _205  and  _206
REMARK   83  A    between atoms: _206  and  _207
REMARK   84  A    between atoms: _212  and  _214
REMARK   85  A    between atoms: _214  and  _215
REMARK   86  A    between atoms: _214  and  _217
REMARK   87  A    between atoms: _220  and  _222
REMARK   88  A    between atoms: _222  and  _223
REMARK   89  A    between atoms: _222  and  _225
REMARK   90  A    between atoms: _225  and  _226
REMARK   91  A    between atoms: _231  and  _232
REMARK   92  A    between atoms: _234  and  _236
REMARK   93  A    between atoms: _236  and  _237
REMARK   94  A    between atoms: _236  and  _239
REMARK   95  A    between atoms: _239  and  _240
REMARK   96  A    between atoms: _243  and  _245
REMARK   97  A    between atoms: _245  and  _246
REMARK   98  A    between atoms: _248  and  _250
REMARK   99  A    between atoms: _250  and  _251
REMARK  100  A    between atoms: _250  and  _253
REMARK  101  A    between atoms: _253  and  _254
REMARK  102  A    between atoms: _257  and  _259
REMARK  103  A    between atoms: _259  and  _260
REMARK  104  A    between atoms: _263  and  _265
REMARK  105  A    between atoms: _265  and  _266
REMARK  106  A    between atoms: _265  and  _268
REMARK  107  A    between atoms: _268  and  _269
REMARK  108  A    between atoms: _272  and  _274
REMARK  109  A    between atoms: _274  and  _275
REMARK  110  A    between atoms: _274  and  _277
REMARK  111  A    between atoms: _277  and  _278
REMARK  112  A    between atoms: _280  and  _282
REMARK  113  A    between atoms: _282  and  _283
REMARK  114  A    between atoms: _282  and  _285
REMARK  115  A    between atoms: _285  and  _286
REMARK  116  A    between atoms: _288  and  _290
REMARK  117  A    between atoms: _290  and  _291
REMARK  118  A    between atoms: _293  and  _295
REMARK  119  A    between atoms: _295  and  _296
REMARK  120  A    between atoms: _295  and  _298
REMARK  121  A    between atoms: _298  and  _299
REMARK  122  A    between atoms: _302  and  _304
REMARK  123  A    between atoms: _304  and  _305
REMARK  124  A    between atoms: _308  and  _310
REMARK  125  A    between atoms: _310  and  _311
REMARK  126  A    between atoms: _310  and  _313
REMARK  127  A    between atoms: _313  and  _314
REMARK  128  A    between atoms: _319  and  _320
REMARK  129  A    between atoms: _322  and  _324
REMARK  130  A    between atoms: _324  and  _325
REMARK  131  A    between atoms: _324  and  _327
REMARK  132  A    between atoms: _327  and  _328
REMARK  133  A    between atoms: _331  and  _333
REMARK  134  A    between atoms: _333  and  _334
REMARK  135  A    between atoms: _337  and  _339
REMARK  136  A    between atoms: _339  and  _340
REMARK  137  A    between atoms: _339  and  _342
REMARK  138  A    between atoms: _342  and  _343
REMARK  139  A    between atoms: _346  and  _348
REMARK  140  A    between atoms: _348  and  _349
REMARK  141  A    between atoms: _348  and  _351
REMARK  142  A    between atoms: _351  and  _352
REMARK  143  A    between atoms: _352  and  _353
REMARK  144  A    between atoms: _353  and  _354
REMARK  145  A    between atoms: _354  and  _355
REMARK  146  A    between atoms: _359  and  _361
REMARK  147  A    between atoms: _361  and  _362
REMARK  148  A    between atoms: _361  and  _364
REMARK  149  A    between atoms: _364  and  _365
REMARK  150  A    between atoms: _367  and  _369
REMARK  151  A    between atoms: _369  and  _370
REMARK  152  A    between atoms: _372  and  _374
REMARK  153  A    between atoms: _374  and  _375
REMARK  154  A    between atoms: _374  and  _377
REMARK  155  A    between atoms: _377  and  _378
REMARK  156  A    between atoms: _381  and  _383
REMARK  157  A    between atoms: _383  and  _384
REMARK  158  A    between atoms: _383  and  _386
REMARK  159  A    between atoms: _386  and  _387
REMARK  160  A    between atoms: _390  and  _392
REMARK  161  A    between atoms: _392  and  _393
REMARK  162  A    between atoms: _396  and  _398
REMARK  163  A    between atoms: _398  and  _399
REMARK  164  A    between atoms: _401  and  _403
REMARK  165  A    between atoms: _403  and  _404
REMARK  166  A    between atoms: _403  and  _406
REMARK  167  A    between atoms: _406  and  _407
REMARK  168  A    between atoms: _413  and  _415
REMARK  169  A    between atoms: _415  and  _416
REMARK  170  A    between atoms: _415  and  _418
REMARK  171  A    between atoms: _418  and  _419
REMARK  172  A    between atoms: _422  and  _424
REMARK  173  A    between atoms: _424  and  _425
REMARK  174  A    between atoms: _424  and  _427
REMARK  175  A    between atoms: _427  and  _428
REMARK  176  A    between atoms: _433  and  _435
REMARK  177  A    between atoms: _435  and  _436
REMARK  178  A    between atoms: _435  and  _438
REMARK  179  A    between atoms: _438  and  _439
REMARK  180  A    between atoms: _442  and  _444
REMARK  181  A    between atoms: _444  and  _445
REMARK  182  A    between atoms: _444  and  _447
REMARK  183  A    between atoms: _447  and  _448
REMARK  184  A    between atoms: _453  and  _454
REMARK  185  A    between atoms: _456  and  _458
REMARK  186  A    between atoms: _458  and  _459
REMARK  187  A    between atoms: _458  and  _461
REMARK  188  A    between atoms: _461  and  _462
REMARK  189  A    between atoms: _465  and  _467
REMARK  190  A    between atoms: _467  and  _468
REMARK  191  A    between atoms: _467  and  _470
REMARK  192  A    between atoms: _470  and  _471
REMARK  193  A    between atoms: _471  and  _472
REMARK  194  A    between atoms: _475  and  _477
REMARK  195  A    between atoms: _477  and  _478
REMARK  196  A    between atoms: _477  and  _480
REMARK  197  A    between atoms: _480  and  _481
REMARK  198  A    between atoms: _484  and  _486
REMARK  199  A    between atoms: _486  and  _487
REMARK  200  A    between atoms: _489  and  _491
REMARK  201  A    between atoms: _491  and  _492
REMARK  202  A    between atoms: _494  and  _496
REMARK  203  A    between atoms: _496  and  _497
REMARK  204  A    between atoms: _496  and  _499
REMARK  205  A    between atoms: _499  and  _500
REMARK  206  A    between atoms: _500  and  _501
REMARK  207  A    between atoms: _506  and  _508
REMARK  208  A    between atoms: _508  and  _509
REMARK  209  A    between atoms: _512  and  _514
REMARK  210  A    between atoms: _514  and  _515
REMARK  211  A    between atoms: _514  and  _517
REMARK  212  A    between atoms: _517  and  _518
REMARK  213  A    between atoms: _521  and  _523
REMARK  214  A    between atoms: _523  and  _524
REMARK  215  A    between atoms: _523  and  _526
REMARK  216  A    between atoms: _526  and  _527
REMARK  217  A    between atoms: _527  and  _528
REMARK  218  A    between atoms: _533  and  _535
REMARK  219  A    between atoms: _535  and  _536
REMARK  220  A    between atoms: _535  and  _538
REMARK  221  A    between atoms: _538  and  _539
REMARK  222  A    between atoms: _542  and  _544
REMARK  223  A    between atoms: _544  and  _545
REMARK  224  A    between atoms: _544  and  _547
REMARK  225  A    between atoms: _547  and  _548
REMARK  226  A    between atoms: _548  and  _549
REMARK  227  A    between atoms: _549  and  _550
REMARK                            x       y       z     vdW  Elec       q    Type
REMARK                         _______ _______ _______ _____ _____    ______ ____
ROOT
ATOM      1  CA  SER A   4     -10.661  -4.263   8.200  0.00  0.00    +0.178 C 
ENDROOT
BRANCH   1   3
ATOM      2  C   GLY A   3     -12.427  -5.290   6.927  0.00  0.00    +0.243 C 
ATOM      3  N   SER A   4     -11.558  -5.375   7.922  0.00  0.00    -0.295 N 
ATOM      4  H   SER A   4     -11.516  -6.236   8.505  0.00  0.00    +0.150 HD
ATOM      5  O   GLY A   3     -12.443  -4.329   6.166  0.00  0.00    -0.273 OA
BRANCH   2   6
ATOM      6  CA  GLY A   3     -13.384  -6.450   6.736  0.00  0.00    +0.176 C 
BRANCH   6   9
ATOM      7  C   ASN A   2     -15.262  -5.127   5.978  0.00  0.00    +0.241 C 
ATOM      8  O   ASN A   2     -15.232  -4.454   7.014  0.00  0.00    -0.273 OA
ATOM      9  N   GLY A   3     -14.424  -6.135   5.766  0.00  0.00    -0.295 N 
ATOM     10  H   GLY A   3     -14.511  -6.704   4.900  0.00  0.00    +0.150 HD
BRANCH   7  11
ATOM     11  CA  ASN A   2     -16.274  -4.808   4.880  0.00  0.00    +0.158 C 
BRANCH  11  13
ATOM     12  C   ARG A   1     -18.647  -4.243   5.180  0.00  0.00    +0.238 C 
ATOM     13  N   ASN A   2     -17.371  -4.094   5.521  0.00  0.00    -0.297 N 
ATOM     14  H   ASN A   2     -17.143  -3.430   6.289  0.00  0.00    +0.150 HD
ATOM     15  O   ARG A   1     -19.017  -4.792   4.135  0.00  0.00    -0.274 OA
BRANCH  12  16
ATOM     16  CA  ARG A   1     -19.664  -3.682   6.171  0.00  0.00    +0.145 C 
BRANCH  16  17
ATOM     17  N   ARG A   1     -20.652  -2.813   5.546  0.00  0.00    -0.238 NA
ATOM     18  H   ARG A   1     -21.461  -3.233   5.045  0.00  0.00    +0.142 HD
ENDBRANCH  16  17
BRANCH  16  19
ATOM     19  CB  ARG A   1     -20.337  -4.838   6.910  0.00  0.00    +0.030 C 
BRANCH  19  20
ATOM     20  CG  ARG A   1     -19.294  -5.767   7.516  0.00  0.00    +0.045 C 
BRANCH  20  21
ATOM     21  CD  ARG A   1     -19.811  -7.121   7.961  0.00  0.00    +0.174 C 
BRANCH  21  22
ATOM     22  NE  ARG A   1     -18.681  -7.911   8.445  0.00  0.00    -0.265 N 
ATOM     23  HE  ARG A   1     -18.483  -7.905   9.466  0.00  0.00    +0.259 HD
ATOM     24  CZ  ARG A   1     -17.890  -8.637   7.659  0.00  0.00    +0.342 C 
ATOM     25  NH2 ARG A   1     -16.865  -9.306   8.172  0.00  0.00    -0.292 N 
ATOM     26 HH21 ARG A   1     -16.676  -9.265   9.194  0.00  0.00    +0.255 HD
ATOM     27 HH22 ARG A   1     -16.251  -9.872   7.552  0.00  0.00    +0.255 HD
ATOM     28  NH1 ARG A   1     -18.134  -8.703   6.357  0.00  0.00    -0.292 N 
ATOM     29 HH11 ARG A   1     -18.942  -8.188   5.953  0.00  0.00    +0.255 HD
ATOM     30 HH12 ARG A   1     -17.517  -9.270   5.740  0.00  0.00    +0.255 HD
ENDBRANCH  21  22
ENDBRANCH  20  21
ENDBRANCH  19  20
ENDBRANCH  16  19
ENDBRANCH  12  16
ENDBRANCH  11  13
BRANCH  11  31
ATOM     31  CB  ASN A   2     -15.602  -3.953   3.798  0.00  0.00    +0.114 C 
BRANCH  31  32
ATOM     32  CG  ASN A   2     -16.412  -3.872   2.508  0.00  0.00    +0.222 C 
ATOM     33  OD1 ASN A   2     -16.777  -2.784   2.063  0.00  0.00    -0.275 OA
ATOM     34  ND2 ASN A   2     -16.676  -5.022   1.893  0.00  0.00    -0.329 N 
ATOM     35 HD21 ASN A   2     -16.348  -5.919   2.305  0.00  0.00    +0.145 HD
ATOM     36 HD22 ASN A   2     -17.210  -5.024   1.001  0.00  0.00    +0.145 HD
ENDBRANCH  31  32
ENDBRANCH  11  31
ENDBRANCH   7  11
ENDBRANCH   6   9
ENDBRANCH   2   6
ENDBRANCH   1   3
BRANCH   1  37
ATOM     37  C   SER A   4      -9.617  -4.072   7.097  0.00  0.00    +0.243 C 
ATOM     38  O   SER A   4      -9.214  -2.950   6.804  0.00  0.00    -0.273 OA
ATOM     39  N   GLY A   5      -9.180  -5.163   6.478  0.00  0.00    -0.295 N 
ATOM     40  H   GLY A   5      -9.520  -6.100   6.776  0.00  0.00    +0.150 HD
BRANCH  39  41
ATOM     41  CA  GLY A   5      -8.229  -5.052   5.387  0.00  0.00    +0.176 C 
BRANCH  41  42
ATOM     42  C   GLY A   5      -8.846  -4.349   4.186  0.00  0.00    +0.243 C 
ATOM     43  N   SER A   6     -10.013  -4.818   3.763  0.00  0.00    -0.295 N 
ATOM     44  H   SER A   6     -10.446  -5.630   4.248  0.00  0.00    +0.150 HD
ATOM     45  O   GLY A   5      -8.266  -3.403   3.635  0.00  0.00    -0.273 OA
BRANCH  43  46
ATOM     46  CA  SER A   6     -10.696  -4.210   2.628  0.00  0.00    +0.178 C 
BRANCH  46  47
ATOM     47  C   SER A   6     -11.061  -2.759   2.910  0.00  0.00    +0.243 C 
ATOM     48  N   THR A   7     -11.518  -2.490   4.128  0.00  0.00    -0.295 N 
ATOM     49  H   THR A   7     -11.550  -3.244   4.844  0.00  0.00    +0.150 HD
ATOM     50  O   SER A   6     -10.932  -1.897   2.041  0.00  0.00    -0.273 OA
BRANCH  48  51
ATOM     51  CA  THR A   7     -11.975  -1.151   4.471  0.00  0.00    +0.176 C 
BRANCH  51  52
ATOM     52  C   THR A   7     -10.823  -0.165   4.374  0.00  0.00    +0.243 C 
ATOM     53  N   PHE A   8      -9.637  -0.577   4.807  0.00  0.00    -0.298 N 
ATOM     54  H   PHE A   8      -9.546  -1.507   5.263  0.00  0.00    +0.150 HD
ATOM     55  O   THR A   7     -11.000   0.956   3.887  0.00  0.00    -0.273 OA
BRANCH  53  56
ATOM     56  CA  PHE A   8      -8.468   0.267   4.645  0.00  0.00    +0.141 C 
BRANCH  56  57
ATOM     57  C   PHE A   8      -8.246   0.596   3.165  0.00  0.00    +0.227 C 
ATOM     58  O   PHE A   8      -8.010   1.753   2.810  0.00  0.00    -0.286 OA
ENDBRANCH  56  57
BRANCH  56  59
ATOM     59  CB  PHE A   8      -7.206  -0.378   5.230  0.00  0.00    +0.054 C 
BRANCH  59  60
ATOM     60  CG  PHE A   8      -5.949   0.337   4.840  0.00  0.00    -0.020 A 
ATOM     61  CD2 PHE A   8      -5.557   1.480   5.516  0.00  0.00    -0.004 A 
ATOM     62  CE2 PHE A   8      -4.418   2.164   5.146  0.00  0.00    -0.000 A 
ATOM     63  CZ  PHE A   8      -3.659   1.722   4.082  0.00  0.00    -0.000 A 
ATOM     64  CE1 PHE A   8      -4.039   0.588   3.390  0.00  0.00    -0.000 A 
ATOM     65  CD1 PHE A   8      -5.184  -0.095   3.765  0.00  0.00    -0.004 A 
ENDBRANCH  59  60
ENDBRANCH  56  59
ENDBRANCH  53  56
ENDBRANCH  51  52
BRANCH  51  66
ATOM     66  CB  THR A   7     -12.633  -1.113   5.856  0.00  0.00    +0.137 C 
ATOM     67  CG2 THR A   7     -13.055   0.326   6.209  0.00  0.00    +0.034 C 
BRANCH  66  68
ATOM     68  OG1 THR A   7     -13.785  -1.951   5.838  0.00  0.00    -0.382 OA
ATOM     69  HG1 THR A   7     -13.514  -2.878   5.619  0.00  0.00    +0.210 HD
ENDBRANCH  66  68
ENDBRANCH  51  66
ENDBRANCH  48  51
ENDBRANCH  46  47
BRANCH  46  70
ATOM     70  CB  SER A   6     -11.954  -4.999   2.269  0.00  0.00    +0.166 C 
BRANCH  70  71
ATOM     71  OG  SER A   6     -11.628  -6.279   1.756  0.00  0.00    -0.380 OA
ATOM     72  H   SER A   6     -11.076  -6.176   0.941  0.00  0.00    +0.211 HD
ENDBRANCH  70  71
ENDBRANCH  46  70
ENDBRANCH  43  46
ENDBRANCH  41  42
ENDBRANCH  39  41
ENDBRANCH   1  37
BRANCH   1  73
ATOM     73  CB  SER A   4     -10.024  -4.408   9.583  0.00  0.00    +0.166 C 
BRANCH  73  74
ATOM     74  OG  SER A   4      -9.275  -5.606   9.671  0.00  0.00    -0.380 OA
ATOM     75  H   SER A   4      -8.873  -5.677  10.573  0.00  0.00    +0.211 HD
ENDBRANCH  73  74
ENDBRANCH   1  73
TORSDOF 30
REMARK  Name = ../refined-set-2016/4r75/4r75_pocket.pdb
REMARK  227 active torsions:
REMARK  status: ('A' for Active; 'I' for Inactive)
REMARK    1  A    between atoms: _1  and  _3
REMARK    2  A    between atoms: _3  and  _4
REMARK    3  A    between atoms: _3  and  _6
REMARK    4  A    between atoms: _8  and  _10
REMARK    5  A    between atoms: _10  and  _11
REMARK    6  A    between atoms: _10  and  _13
REMARK    7  A    between atoms: _13  and  _14
REMARK    8  A    between atoms: _16  and  _18
REMARK    9  A    between atoms: _18  and  _19
REMARK   10  A    between atoms: _22  and  _24
REMARK   11  A    between atoms: _24  and  _25
REMARK   12  A    between atoms: _24  and  _27
REMARK   13  A    between atoms: _27  and  _28
REMARK   14  A    between atoms: _31  and  _33
REMARK   15  A    between atoms: _33  and  _34
REMARK   16  A    between atoms: _33  and  _36
REMARK   17  A    between atoms: _36  and  _37
REMARK   18  A    between atoms: _42  and  _44
REMARK   19  A    between atoms: _44  and  _45
REMARK   20  A    between atoms: _44  and  _47
REMARK   21  A    between atoms: _47  and  _48
REMARK   22  A    between atoms: _48  and  _49
REMARK   23  A    between atoms: _51  and  _53
REMARK   24  A    between atoms: _53  and  _54
REMARK   25  A    between atoms: _53  and  _56
REMARK   26  A    between atoms: _56  and  _57
REMARK   27  A    between atoms: _57  and  _58
REMARK   28  A    between atoms: _58  and  _59
REMARK   29  A    between atoms: _68  and  _70
REMARK   30  A    between atoms: _70  and  _71
REMARK   31  A    between atoms: _70  and  _73
REMARK   32  A    between atoms: _73  and  _74
REMARK   33  A    between atoms: _79  and  _81
REMARK   34  A    between atoms: _81  and  _82
REMARK   35  A    between atoms: _84  and  _86
REMARK   36  A    between atoms: _86  and  _87
REMARK   37  A    between atoms: _86  and  _89
REMARK   38  A    between atoms: _89  and  _90
REMARK   39  A    between atoms: _92  and  _94
REMARK   40  A    between atoms: _94  and  _95
REMARK   41  A    between atoms: _97  and  _99
REMARK   42  A    between atoms: _99  and  _100
REMARK   43  A    between atoms: _99  and  _102
REMARK   44  A    between atoms: _102  and  _103
REMARK   45  A    between atoms: _105  and  _107
REMARK   46  A    between atoms: _107  and  _108
REMARK   47  A    between atoms: _107  and  _110
REMARK   48  A    between atoms: _110  and  _111
REMARK   49  A    between atoms: _114  and  _116
REMARK   50  A    between atoms: _116  and  _117
REMARK   51  A    between atoms: _116  and  _119
REMARK   52  A    between atoms: _119  and  _120
REMARK   53  A    between atoms: _126  and  _128
REMARK   54  A    between atoms: _128  and  _129
REMARK   55  A    between atoms: _128  and  _131
REMARK   56  A    between atoms: _131  and  _132
REMARK   57  A    between atoms: _142  and  _144
REMARK   58  A    between atoms: _144  and  _145
REMARK   59  A    between atoms: _144  and  _147
REMARK   60  A    between atoms: _147  and  _148
REMARK   61  A    between atoms: _153  and  _154
REMARK   62  A    between atoms: _156  and  _158
REMARK   63  A    between atoms: _158  and  _159
REMARK   64  A    between atoms: _161  and  _163
REMARK   65  A    between atoms: _163  and  _164
REMARK   66  A    between atoms: _166  and  _168
REMARK   67  A    between atoms: _168  and  _169
REMARK   68  A    between atoms: _168  and  _171
REMARK   69  A    between atoms: _171  and  _172
REMARK   70  A    between atoms: _175  and  _177
REMARK   71  A    between atoms: _177  and  _178
REMARK   72  A    between atoms: _177  and  _180
REMARK   73  A    between atoms: _180  and  _181
REMARK   74  A    between atoms: _184  and  _186
REMARK   75  A    between atoms: _186  and  _187
REMARK   76  A    between atoms: _186  and  _189
REMARK   77  A    between atoms: _189  and  _190
REMARK   78  A    between atoms: _194  and  _195
REMARK   79  A    between atoms: _200  and  _202
REMARK   80  A    between atoms: _202  and  _203
REMARK   81  A    between atoms: _202  and  _205
REMARK   82  A    between atoms: _205  and  _206
REMARK   83  A    between atoms: _206  and  _207
REMARK   84  A    between atoms: _212  and  _214
REMARK   85  A    between atoms: _214  and  _215
REMARK   86  A    between atoms: _214  and  _217
REMARK   87  A    between atoms: _220  and  _222
REMARK   88  A    between atoms: _222  and  _223
REMARK   89  A    between atoms: _222  and  _225
REMARK   90  A    between atoms: _225  and  _226
REMARK   91  A    between atoms: _231  and  _232
REMARK   92  A    between atoms: _234  and  _236
REMARK   93  A    between atoms: _236  and  _237
REMARK   94  A    between atoms: _236  and  _239
REMARK   95  A    between atoms: _239  and  _240
REMARK   96  A    between atoms: _243  and  _245
REMARK   97  A    between atoms: _245  and  _246
REMARK   98  A    between atoms: _248  and  _250
REMARK   99  A    between atoms: _250  and  _251
REMARK  100  A    between atoms: _250  and  _253
REMARK  101  A    between atoms: _253  and  _254
REMARK  102  A    between atoms: _257  and  _259
REMARK  103  A    between atoms: _259  and  _260
REMARK  104  A    between atoms: _263  and  _265
REMARK  105  A    between atoms: _265  and  _266
REMARK  106  A    between atoms: _265  and  _268
REMARK  107  A    between atoms: _268  and  _269
REMARK  108  A    between atoms: _272  and  _274
REMARK  109  A    between atoms: _274  and  _275
REMARK  110  A    between atoms: _274  and  _277
REMARK  111  A    between atoms: _277  and  _278
REMARK  112  A    between atoms: _280  and  _282
REMARK  113  A    between atoms: _282  and  _283
REMARK  114  A    between atoms: _282  and  _285
REMARK  115  A    between atoms: _285  and  _286
REMARK  116  A    between atoms: _288  and  _290
REMARK  117  A    between atoms: _290  and  _291
REMARK  118  A    between atoms: _293  and  _295
REMARK  119  A    between atoms: _295  and  _296
REMARK  120  A    between atoms: _295  and  _298
REMARK  121  A    between atoms: _298  and  _299
REMARK  122  A    between atoms: _302  and  _304
REMARK  123  A    between atoms: _304  and  _305
REMARK  124  A    between atoms: _308  and  _310
REMARK  125  A    between atoms: _310  and  _311
REMARK  126  A    between atoms: _310  and  _313
REMARK  127  A    between atoms: _313  and  _314
REMARK  128  A    between atoms: _319  and  _320
REMARK  129  A    between atoms: _322  and  _324
REMARK  130  A    between atoms: _324  and  _325
REMARK  131  A    between atoms: _324  and  _327
REMARK  132  A    between atoms: _327  and  _328
REMARK  133  A    between atoms: _331  and  _333
REMARK  134  A    between atoms: _333  and  _334
REMARK  135  A    between atoms: _337  and  _339
REMARK  136  A    between atoms: _339  and  _340
REMARK  137  A    between atoms: _339  and  _342
REMARK  138  A    between atoms: _342  and  _343
REMARK  139  A    between atoms: _346  and  _348
REMARK  140  A    between atoms: _348  and  _349
REMARK  141  A    between atoms: _348  and  _351
REMARK  142  A    between atoms: _351  and  _352
REMARK  143  A    between atoms: _352  and  _353
REMARK  144  A    between atoms: _353  and  _354
REMARK  145  A    between atoms: _354  and  _355
REMARK  146  A    between atoms: _359  and  _361
REMARK  147  A    between atoms: _361  and  _362
REMARK  148  A    between atoms: _361  and  _364
REMARK  149  A    between atoms: _364  and  _365
REMARK  150  A    between atoms: _367  and  _369
REMARK  151  A    between atoms: _369  and  _370
REMARK  152  A    between atoms: _372  and  _374
REMARK  153  A    between atoms: _374  and  _375
REMARK  154  A    between atoms: _374  and  _377
REMARK  155  A    between atoms: _377  and  _378
REMARK  156  A    between atoms: _381  and  _383
REMARK  157  A    between atoms: _383  and  _384
REMARK  158  A    between atoms: _383  and  _386
REMARK  159  A    between atoms: _386  and  _387
REMARK  160  A    between atoms: _390  and  _392
REMARK  161  A    between atoms: _392  and  _393
REMARK  162  A    between atoms: _396  and  _398
REMARK  163  A    between atoms: _398  and  _399
REMARK  164  A    between atoms: _401  and  _403
REMARK  165  A    between atoms: _403  and  _404
REMARK  166  A    between atoms: _403  and  _406
REMARK  167  A    between atoms: _406  and  _407
REMARK  168  A    between atoms: _413  and  _415
REMARK  169  A    between atoms: _415  and  _416
REMARK  170  A    between atoms: _415  and  _418
REMARK  171  A    between atoms: _418  and  _419
REMARK  172  A    between atoms: _422  and  _424
REMARK  173  A    between atoms: _424  and  _425
REMARK  174  A    between atoms: _424  and  _427
REMARK  175  A    between atoms: _427  and  _428
REMARK  176  A    between atoms: _433  and  _435
REMARK  177  A    between atoms: _435  and  _436
REMARK  178  A    between atoms: _435  and  _438
REMARK  179  A    between atoms: _438  and  _439
REMARK  180  A    between atoms: _442  and  _444
REMARK  181  A    between atoms: _444  and  _445
REMARK  182  A    between atoms: _444  and  _447
REMARK  183  A    between atoms: _447  and  _448
REMARK  184  A    between atoms: _453  and  _454
REMARK  185  A    between atoms: _456  and  _458
REMARK  186  A    between atoms: _458  and  _459
REMARK  187  A    between atoms: _458  and  _461
REMARK  188  A    between atoms: _461  and  _462
REMARK  189  A    between atoms: _465  and  _467
REMARK  190  A    between atoms: _467  and  _468
REMARK  191  A    between atoms: _467  and  _470
REMARK  192  A    between atoms: _470  and  _471
REMARK  193  A    between atoms: _471  and  _472
REMARK  194  A    between atoms: _475  and  _477
REMARK  195  A    between atoms: _477  and  _478
REMARK  196  A    between atoms: _477  and  _480
REMARK  197  A    between atoms: _480  and  _481
REMARK  198  A    between atoms: _484  and  _486
REMARK  199  A    between atoms: _486  and  _487
REMARK  200  A    between atoms: _489  and  _491
REMARK  201  A    between atoms: _491  and  _492
REMARK  202  A    between atoms: _494  and  _496
REMARK  203  A    between atoms: _496  and  _497
REMARK  204  A    between atoms: _496  and  _499
REMARK  205  A    between atoms: _499  and  _500
REMARK  206  A    between atoms: _500  and  _501
REMARK  207  A    between atoms: _506  and  _508
REMARK  208  A    between atoms: _508  and  _509
REMARK  209  A    between atoms: _512  and  _514
REMARK  210  A    between atoms: _514  and  _515
REMARK  211  A    between atoms: _514  and  _517
REMARK  212  A    between atoms: _517  and  _518
REMARK  213  A    between atoms: _521  and  _523
REMARK  214  A    between atoms: _523  and  _524
REMARK  215  A    between atoms: _523  and  _526
REMARK  216  A    between atoms: _526  and  _527
REMARK  217  A    between atoms: _527  and  _528
REMARK  218  A    between atoms: _533  and  _535
REMARK  219  A    between atoms: _535  and  _536
REMARK  220  A    between atoms: _535  and  _538
REMARK  221  A    between atoms: _538  and  _539
REMARK  222  A    between atoms: _542  and  _544
REMARK  223  A    between atoms: _544  and  _545
REMARK  224  A    between atoms: _544  and  _547
REMARK  225  A    between atoms: _547  and  _548
REMARK  226  A    between atoms: _548  and  _549
REMARK  227  A    between atoms: _549  and  _550
REMARK                            x       y       z     vdW  Elec       q    Type
REMARK                         _______ _______ _______ _____ _____    ______ ____
ROOT
ATOM      1  CA  THR A   5      -8.610  -4.902  13.650  0.00  0.00    +0.176 C 
ENDROOT
BRANCH   1   4
ATOM      2  C   GLY A   4     -10.895  -4.109  13.406  0.00  0.00    +0.243 C 
ATOM      3  O   GLY A   4     -10.737  -3.272  14.294  0.00  0.00    -0.273 OA
ATOM      4  N   THR A   5      -9.924  -4.935  13.021  0.00  0.00    -0.295 N 
ATOM      5  H   THR A   5     -10.107  -5.616  12.257  0.00  0.00    +0.150 HD
BRANCH   2   6
ATOM      6  CA  GLY A   4     -12.225  -4.256  12.693  0.00  0.00    +0.176 C 
BRANCH   6   8
ATOM      7  C   GLY A   3     -13.726  -2.488  13.451  0.00  0.00    +0.243 C 
ATOM      8  N   GLY A   4     -13.328  -3.758  13.507  0.00  0.00    -0.295 N 
ATOM      9  H   GLY A   4     -13.818  -4.413  14.149  0.00  0.00    +0.150 HD
ATOM     10  O   GLY A   3     -13.258  -1.663  12.653  0.00  0.00    -0.273 OA
BRANCH   7  11
ATOM     11  CA  GLY A   3     -14.813  -2.098  14.433  0.00  0.00    +0.176 C 
BRANCH  11  13
ATOM     12  C   TYR A   2     -15.944  -0.241  13.361  0.00  0.00    +0.241 C 
ATOM     13  N   GLY A   3     -15.157  -0.693  14.330  0.00  0.00    -0.295 N 
ATOM     14  H   GLY A   3     -14.779  -0.024  15.031  0.00  0.00    +0.150 HD
ATOM     15  O   TYR A   2     -16.472  -0.968  12.514  0.00  0.00    -0.273 OA
BRANCH  12  16
ATOM     16  CA  TYR A   2     -16.218   1.241  13.380  0.00  0.00    +0.153 C 
BRANCH  16  19
ATOM     17  C   TRP A   1     -14.950   2.820  12.015  0.00  0.00    +0.239 C 
ATOM     18  O   TRP A   1     -14.276   3.191  12.965  0.00  0.00    -0.274 OA
ATOM     19  N   TYR A   2     -15.877   1.871  12.108  0.00  0.00    -0.297 N 
ATOM     20  H   TYR A   2     -16.375   1.568  11.247  0.00  0.00    +0.150 HD
BRANCH  17  21
ATOM     21  CA  TRP A   1     -14.794   3.493  10.664  0.00  0.00    +0.149 C 
BRANCH  21  22
ATOM     22  N   TRP A   1     -15.161   4.888  10.892  0.00  0.00    -0.238 NA
ATOM     23  H   TRP A   1     -14.516   5.473  11.461  0.00  0.00    +0.142 HD
ENDBRANCH  21  22
BRANCH  21  24
ATOM     24  CB  TRP A   1     -13.337   3.458  10.210  0.00  0.00    +0.054 C 
BRANCH  24  25
ATOM     25  CG  TRP A   1     -12.750   2.120   9.830  0.00  0.00    -0.002 A 
ATOM     26  CD1 TRP A   1     -13.353   0.882   9.874  0.00  0.00    +0.068 A 
ATOM     27  NE1 TRP A   1     -12.465  -0.087   9.442  0.00  0.00    -0.352 N 
ATOM     28  HE1 TRP A   1     -12.660  -1.107   9.388  0.00  0.00    +0.166 HD
ATOM     29  CE2 TRP A   1     -11.284   0.521   9.097  0.00  0.00    +0.056 A 
ATOM     30  CZ2 TRP A   1     -10.107  -0.032   8.592  0.00  0.00    +0.017 A 
ATOM     31  CH2 TRP A   1      -9.070   0.824   8.331  0.00  0.00    +0.001 A 
ATOM     32  CZ3 TRP A   1      -9.187   2.206   8.558  0.00  0.00    +0.000 A 
ATOM     33  CE3 TRP A   1     -10.351   2.752   9.055  0.00  0.00    +0.001 A 
ATOM     34  CD2 TRP A   1     -11.432   1.906   9.324  0.00  0.00    +0.013 A 
ENDBRANCH  24  25
ENDBRANCH  21  24
ENDBRANCH  17  21
ENDBRANCH  16  19
BRANCH  16  35
ATOM     35  CB  TYR A   2     -17.693   1.446  13.702  0.00  0.00    +0.055 C 
BRANCH  35  36
ATOM     36  CG  TYR A   2     -18.170   0.808  14.996  0.00  0.00    -0.020 A 
ATOM     37  CD2 TYR A   2     -17.542   1.080  16.212  0.00  0.00    -0.001 A 
ATOM     38  CE2 TYR A   2     -17.994   0.504  17.395  0.00  0.00    +0.036 A 
ATOM     39  CZ  TYR A   2     -19.102  -0.319  17.369  0.00  0.00    +0.134 A 
ATOM     40  CE1 TYR A   2     -19.750  -0.585  16.180  0.00  0.00    +0.036 A 
ATOM     41  CD1 TYR A   2     -19.274  -0.027  15.003  0.00  0.00    -0.001 A 
BRANCH  39  42
ATOM     42  OH  TYR A   2     -19.586  -0.875  18.532  0.00  0.00    -0.506 OA
ATOM     43  HH  TYR A   2     -19.018  -0.593  19.292  0.00  0.00    +0.292 HD
ENDBRANCH  39  42
ENDBRANCH  35  36
ENDBRANCH  16  35
ENDBRANCH  12  16
ENDBRANCH  11  13
ENDBRANCH   7  11
ENDBRANCH   6   8
ENDBRANCH   2   6
ENDBRANCH   1   4
BRANCH   1  44
ATOM     44  C   THR A   5      -7.997  -3.512  13.577  0.00  0.00    +0.243 C 
ATOM     45  N   LEU A   6      -7.221  -3.185  14.598  0.00  0.00    -0.297 N 
ATOM     46  H   LEU A   6      -6.996  -3.897  15.322  0.00  0.00    +0.150 HD
ATOM     47  O   THR A   5      -8.234  -2.735  12.638  0.00  0.00    -0.273 OA
BRANCH  45  48
ATOM     48  CA  LEU A   6      -6.676  -1.833  14.719  0.00  0.00    +0.149 C 
BRANCH  48  49
ATOM     49  C   LEU A   6      -5.549  -1.508  13.736  0.00  0.00    +0.241 C 
ATOM     50  O   LEU A   6      -5.366  -0.350  13.356  0.00  0.00    -0.273 OA
ATOM     51  N   ASP A   7      -4.785  -2.517  13.319  0.00  0.00    -0.297 N 
ATOM     52  H   ASP A   7      -5.055  -3.499  13.531  0.00  0.00    +0.150 HD
BRANCH  51  53
ATOM     53  CA  ASP A   7      -3.568  -2.238  12.564  0.00  0.00    +0.160 C 
BRANCH  53  54
ATOM     54  C   ASP A   7      -3.858  -1.402  11.328  0.00  0.00    +0.244 C 
ATOM     55  O   ASP A   7      -3.159  -0.419  11.090  0.00  0.00    -0.273 OA
ATOM     56  N   PRO A   8      -4.873  -1.780  10.536  0.00  0.00    -0.272 N 
ATOM     57  CD  PRO A   8      -5.655  -3.032  10.550  0.00  0.00    +0.094 C 
ATOM     58  CG  PRO A   8      -5.971  -3.241   9.080  0.00  0.00    +0.024 C 
ATOM     59  CB  PRO A   8      -6.194  -1.814   8.576  0.00  0.00    +0.031 C 
ATOM     60  CA  PRO A   8      -5.147  -0.977   9.335  0.00  0.00    +0.152 C 
BRANCH  60  61
ATOM     61  C   PRO A   8      -5.665   0.423   9.671  0.00  0.00    +0.241 C 
ATOM     62  N   GLN A   9      -6.310   0.584  10.826  0.00  0.00    -0.298 N 
ATOM     63  H   GLN A   9      -6.515  -0.241  11.425  0.00  0.00    +0.150 HD
ATOM     64  O   PRO A   8      -5.460   1.341   8.873  0.00  0.00    -0.273 OA
BRANCH  62  65
ATOM     65  CA  GLN A   9      -6.731   1.919  11.255  0.00  0.00    +0.137 C 
BRANCH  65  66
ATOM     66  C   GLN A   9      -5.522   2.773  11.643  0.00  0.00    +0.227 C 
ATOM     67  O   GLN A   9      -5.443   3.955  11.283  0.00  0.00    -0.286 OA
ENDBRANCH  65  66
BRANCH  65  68
ATOM     68  CB  GLN A   9      -7.751   1.835  12.392  0.00  0.00    +0.037 C 
BRANCH  68  69
ATOM     69  CG  GLN A   9      -9.002   1.087  11.979  0.00  0.00    +0.087 C 
BRANCH  69  70
ATOM     70  CD  GLN A   9     -10.189   1.307  12.893  0.00  0.00    +0.219 C 
ATOM     71  OE1 GLN A   9     -10.261   2.291  13.630  0.00  0.00    -0.275 OA
ATOM     72  NE2 GLN A   9     -11.136   0.374  12.849  0.00  0.00    -0.329 N 
ATOM     73 HE21 GLN A   9     -11.979   0.460  13.452  0.00  0.00    +0.145 HD
ATOM     74 HE22 GLN A   9     -11.034  -0.441  12.211  0.00  0.00    +0.145 HD
ENDBRANCH  69  70
ENDBRANCH  68  69
ENDBRANCH  65  68
ENDBRANCH  62  65
ENDBRANCH  60  61
ENDBRANCH  53  54
BRANCH  53  75
ATOM     75  CB  ASP A   7      -2.784  -3.507  12.198  0.00  0.00    +0.143 C 
BRANCH  75  76
ATOM     76  CG  ASP A   7      -2.572  -4.427  13.378  0.00  0.00    +0.367 C 
ATOM     77  OD2 ASP A   7      -1.426  -4.551  13.877  0.00  0.00    -0.246 OA
ATOM     78  OD1 ASP A   7      -3.573  -5.069  13.784  0.00  0.00    -0.246 OA
ENDBRANCH  75  76
ENDBRANCH  53  75
ENDBRANCH  51  53
ENDBRANCH  48  49
BRANCH  48  79
ATOM     79  CB  LEU A   6      -6.192  -1.573  16.146  0.00  0.00    +0.029 C 
BRANCH  79  80
ATOM     80  CG  LEU A   6      -5.653  -0.171  16.448  0.00  0.00    +0.002 C 
ATOM     81  CD2 LEU A   6      -4.995  -0.159  17.800  0.00  0.00    +0.000 C 
ATOM     82  CD1 LEU A   6      -6.744   0.861  16.381  0.00  0.00    +0.000 C 
ENDBRANCH  79  80
ENDBRANCH  48  79
ENDBRANCH  45  48
ENDBRANCH   1  44
BRANCH   1  83
ATOM     83  CB  THR A   5      -7.626  -5.900  13.017  0.00  0.00    +0.137 C 
ATOM     84  CG2 THR A   5      -8.139  -7.334  13.089  0.00  0.00    +0.034 C 
BRANCH  83  85
ATOM     85  OG1 THR A   5      -7.399  -5.538  11.657  0.00  0.00    -0.382 OA
ATOM     86  HG1 THR A   5      -8.257  -5.559  11.164  0.00  0.00    +0.210 HD
ENDBRANCH  83  85
ENDBRANCH   1  83
TORSDOF 31
REMARK  Name = ../refined-set-2016/4r75/4r75_pocket.pdb
REMARK  227 active torsions:
REMARK  status: ('A' for Active; 'I' for Inactive)
REMARK    1  A    between atoms: _1  and  _3
REMARK    2  A    between atoms: _3  and  _4
REMARK    3  A    between atoms: _3  and  _6
REMARK    4  A    between atoms: _8  and  _10
REMARK    5  A    between atoms: _10  and  _11
REMARK    6  A    between atoms: _10  and  _13
REMARK    7  A    between atoms: _13  and  _14
REMARK    8  A    between atoms: _16  and  _18
REMARK    9  A    between atoms: _18  and  _19
REMARK   10  A    between atoms: _22  and  _24
REMARK   11  A    between atoms: _24  and  _25
REMARK   12  A    between atoms: _24  and  _27
REMARK   13  A    between atoms: _27  and  _28
REMARK   14  A    between atoms: _31  and  _33
REMARK   15  A    between atoms: _33  and  _34
REMARK   16  A    between atoms: _33  and  _36
REMARK   17  A    between atoms: _36  and  _37
REMARK   18  A    between atoms: _42  and  _44
REMARK   19  A    between atoms: _44  and  _45
REMARK   20  A    between atoms: _44  and  _47
REMARK   21  A    between atoms: _47  and  _48
REMARK   22  A    between atoms: _48  and  _49
REMARK   23  A    between atoms: _51  and  _53
REMARK   24  A    between atoms: _53  and  _54
REMARK   25  A    between atoms: _53  and  _56
REMARK   26  A    between atoms: _56  and  _57
REMARK   27  A    between atoms: _57  and  _58
REMARK   28  A    between atoms: _58  and  _59
REMARK   29  A    between atoms: _68  and  _70
REMARK   30  A    between atoms: _70  and  _71
REMARK   31  A    between atoms: _70  and  _73
REMARK   32  A    between atoms: _73  and  _74
REMARK   33  A    between atoms: _79  and  _81
REMARK   34  A    between atoms: _81  and  _82
REMARK   35  A    between atoms: _84  and  _86
REMARK   36  A    between atoms: _86  and  _87
REMARK   37  A    between atoms: _86  and  _89
REMARK   38  A    between atoms: _89  and  _90
REMARK   39  A    between atoms: _92  and  _94
REMARK   40  A    between atoms: _94  and  _95
REMARK   41  A    between atoms: _97  and  _99
REMARK   42  A    between atoms: _99  and  _100
REMARK   43  A    between atoms: _99  and  _102
REMARK   44  A    between atoms: _102  and  _103
REMARK   45  A    between atoms: _105  and  _107
REMARK   46  A    between atoms: _107  and  _108
REMARK   47  A    between atoms: _107  and  _110
REMARK   48  A    between atoms: _110  and  _111
REMARK   49  A    between atoms: _114  and  _116
REMARK   50  A    between atoms: _116  and  _117
REMARK   51  A    between atoms: _116  and  _119
REMARK   52  A    between atoms: _119  and  _120
REMARK   53  A    between atoms: _126  and  _128
REMARK   54  A    between atoms: _128  and  _129
REMARK   55  A    between atoms: _128  and  _131
REMARK   56  A    between atoms: _131  and  _132
REMARK   57  A    between atoms: _142  and  _144
REMARK   58  A    between atoms: _144  and  _145
REMARK   59  A    between atoms: _144  and  _147
REMARK   60  A    between atoms: _147  and  _148
REMARK   61  A    between atoms: _153  and  _154
REMARK   62  A    between atoms: _156  and  _158
REMARK   63  A    between atoms: _158  and  _159
REMARK   64  A    between atoms: _161  and  _163
REMARK   65  A    between atoms: _163  and  _164
REMARK   66  A    between atoms: _166  and  _168
REMARK   67  A    between atoms: _168  and  _169
REMARK   68  A    between atoms: _168  and  _171
REMARK   69  A    between atoms: _171  and  _172
REMARK   70  A    between atoms: _175  and  _177
REMARK   71  A    between atoms: _177  and  _178
REMARK   72  A    between atoms: _177  and  _180
REMARK   73  A    between atoms: _180  and  _181
REMARK   74  A    between atoms: _184  and  _186
REMARK   75  A    between atoms: _186  and  _187
REMARK   76  A    between atoms: _186  and  _189
REMARK   77  A    between atoms: _189  and  _190
REMARK   78  A    between atoms: _194  and  _195
REMARK   79  A    between atoms: _200  and  _202
REMARK   80  A    between atoms: _202  and  _203
REMARK   81  A    between atoms: _202  and  _205
REMARK   82  A    between atoms: _205  and  _206
REMARK   83  A    between atoms: _206  and  _207
REMARK   84  A    between atoms: _212  and  _214
REMARK   85  A    between atoms: _214  and  _215
REMARK   86  A    between atoms: _214  and  _217
REMARK   87  A    between atoms: _220  and  _222
REMARK   88  A    between atoms: _222  and  _223
REMARK   89  A    between atoms: _222  and  _225
REMARK   90  A    between atoms: _225  and  _226
REMARK   91  A    between atoms: _231  and  _232
REMARK   92  A    between atoms: _234  and  _236
REMARK   93  A    between atoms: _236  and  _237
REMARK   94  A    between atoms: _236  and  _239
REMARK   95  A    between atoms: _239  and  _240
REMARK   96  A    between atoms: _243  and  _245
REMARK   97  A    between atoms: _245  and  _246
REMARK   98  A    between atoms: _248  and  _250
REMARK   99  A    between atoms: _250  and  _251
REMARK  100  A    between atoms: _250  and  _253
REMARK  101  A    between atoms: _253  and  _254
REMARK  102  A    between atoms: _257  and  _259
REMARK  103  A    between atoms: _259  and  _260
REMARK  104  A    between atoms: _263  and  _265
REMARK  105  A    between atoms: _265  and  _266
REMARK  106  A    between atoms: _265  and  _268
REMARK  107  A    between atoms: _268  and  _269
REMARK  108  A    between atoms: _272  and  _274
REMARK  109  A    between atoms: _274  and  _275
REMARK  110  A    between atoms: _274  and  _277
REMARK  111  A    between atoms: _277  and  _278
REMARK  112  A    between atoms: _280  and  _282
REMARK  113  A    between atoms: _282  and  _283
REMARK  114  A    between atoms: _282  and  _285
REMARK  115  A    between atoms: _285  and  _286
REMARK  116  A    between atoms: _288  and  _290
REMARK  117  A    between atoms: _290  and  _291
REMARK  118  A    between atoms: _293  and  _295
REMARK  119  A    between atoms: _295  and  _296
REMARK  120  A    between atoms: _295  and  _298
REMARK  121  A    between atoms: _298  and  _299
REMARK  122  A    between atoms: _302  and  _304
REMARK  123  A    between atoms: _304  and  _305
REMARK  124  A    between atoms: _308  and  _310
REMARK  125  A    between atoms: _310  and  _311
REMARK  126  A    between atoms: _310  and  _313
REMARK  127  A    between atoms: _313  and  _314
REMARK  128  A    between atoms: _319  and  _320
REMARK  129  A    between atoms: _322  and  _324
REMARK  130  A    between atoms: _324  and  _325
REMARK  131  A    between atoms: _324  and  _327
REMARK  132  A    between atoms: _327  and  _328
REMARK  133  A    between atoms: _331  and  _333
REMARK  134  A    between atoms: _333  and  _334
REMARK  135  A    between atoms: _337  and  _339
REMARK  136  A    between atoms: _339  and  _340
REMARK  137  A    between atoms: _339  and  _342
REMARK  138  A    between atoms: _342  and  _343
REMARK  139  A    between atoms: _346  and  _348
REMARK  140  A    between atoms: _348  and  _349
REMARK  141  A    between atoms: _348  and  _351
REMARK  142  A    between atoms: _351  and  _352
REMARK  143  A    between atoms: _352  and  _353
REMARK  144  A    between atoms: _353  and  _354
REMARK  145  A    between atoms: _354  and  _355
REMARK  146  A    between atoms: _359  and  _361
REMARK  147  A    between atoms: _361  and  _362
REMARK  148  A    between atoms: _361  and  _364
REMARK  149  A    between atoms: _364  and  _365
REMARK  150  A    between atoms: _367  and  _369
REMARK  151  A    between atoms: _369  and  _370
REMARK  152  A    between atoms: _372  and  _374
REMARK  153  A    between atoms: _374  and  _375
REMARK  154  A    between atoms: _374  and  _377
REMARK  155  A    between atoms: _377  and  _378
REMARK  156  A    between atoms: _381  and  _383
REMARK  157  A    between atoms: _383  and  _384
REMARK  158  A    between atoms: _383  and  _386
REMARK  159  A    between atoms: _386  and  _387
REMARK  160  A    between atoms: _390  and  _392
REMARK  161  A    between atoms: _392  and  _393
REMARK  162  A    between atoms: _396  and  _398
REMARK  163  A    between atoms: _398  and  _399
REMARK  164  A    between atoms: _401  and  _403
REMARK  165  A    between atoms: _403  and  _404
REMARK  166  A    between atoms: _403  and  _406
REMARK  167  A    between atoms: _406  and  _407
REMARK  168  A    between atoms: _413  and  _415
REMARK  169  A    between atoms: _415  and  _416
REMARK  170  A    between atoms: _415  and  _418
REMARK  171  A    between atoms: _418  and  _419
REMARK  172  A    between atoms: _422  and  _424
REMARK  173  A    between atoms: _424  and  _425
REMARK  174  A    between atoms: _424  and  _427
REMARK  175  A    between atoms: _427  and  _428
REMARK  176  A    between atoms: _433  and  _435
REMARK  177  A    between atoms: _435  and  _436
REMARK  178  A    between atoms: _435  and  _438
REMARK  179  A    between atoms: _438  and  _439
REMARK  180  A    between atoms: _442  and  _444
REMARK  181  A    between atoms: _444  and  _445
REMARK  182  A    between atoms: _444  and  _447
REMARK  183  A    between atoms: _447  and  _448
REMARK  184  A    between atoms: _453  and  _454
REMARK  185  A    between atoms: _456  and  _458
REMARK  186  A    between atoms: _458  and  _459
REMARK  187  A    between atoms: _458  and  _461
REMARK  188  A    between atoms: _461  and  _462
REMARK  189  A    between atoms: _465  and  _467
REMARK  190  A    between atoms: _467  and  _468
REMARK  191  A    between atoms: _467  and  _470
REMARK  192  A    between atoms: _470  and  _471
REMARK  193  A    between atoms: _471  and  _472
REMARK  194  A    between atoms: _475  and  _477
REMARK  195  A    between atoms: _477  and  _478
REMARK  196  A    between atoms: _477  and  _480
REMARK  197  A    between atoms: _480  and  _481
REMARK  198  A    between atoms: _484  and  _486
REMARK  199  A    between atoms: _486  and  _487
REMARK  200  A    between atoms: _489  and  _491
REMARK  201  A    between atoms: _491  and  _492
REMARK  202  A    between atoms: _494  and  _496
REMARK  203  A    between atoms: _496  and  _497
REMARK  204  A    between atoms: _496  and  _499
REMARK  205  A    between atoms: _499  and  _500
REMARK  206  A    between atoms: _500  and  _501
REMARK  207  A    between atoms: _506  and  _508
REMARK  208  A    between atoms: _508  and  _509
REMARK  209  A    between atoms: _512  and  _514
REMARK  210  A    between atoms: _514  and  _515
REMARK  211  A    between atoms: _514  and  _517
REMARK  212  A    between atoms: _517  and  _518
REMARK  213  A    between atoms: _521  and  _523
REMARK  214  A    between atoms: _523  and  _524
REMARK  215  A    between atoms: _523  and  _526
REMARK  216  A    between atoms: _526  and  _527
REMARK  217  A    between atoms: _527  and  _528
REMARK  218  A    between atoms: _533  and  _535
REMARK  219  A    between atoms: _535  and  _536
REMARK  220  A    between atoms: _535  and  _538
REMARK  221  A    between atoms: _538  and  _539
REMARK  222  A    between atoms: _542  and  _544
REMARK  223  A    between atoms: _544  and  _545
REMARK  224  A    between atoms: _544  and  _547
REMARK  225  A    between atoms: _547  and  _548
REMARK  226  A    between atoms: _548  and  _549
REMARK  227  A    between atoms: _549  and  _550
REMARK                            x       y       z     vdW  Elec       q    Type
REMARK                         _______ _______ _______ _____ _____    ______ ____
ROOT
ATOM      1  C   TYR A   2     -11.481  -4.955  21.867  0.00  0.00    +0.241 C 
ATOM      2  N   ILE A   3     -11.378  -6.140  22.466  0.00  0.00    -0.297 N 
ATOM      3  H   ILE A   3     -12.156  -6.467  23.073  0.00  0.00    +0.150 HD
ATOM      4  O   TYR A   2     -10.567  -4.432  21.214  0.00  0.00    -0.273 OA
ENDROOT
BRANCH   2   5
ATOM      5  CA  ILE A   3     -10.215  -6.988  22.298  0.00  0.00    +0.149 C 
BRANCH   5   6
ATOM      6  C   ILE A   3     -10.712  -8.333  21.771  0.00  0.00    +0.241 C 
ATOM      7  O   ILE A   3     -11.730  -8.869  22.246  0.00  0.00    -0.273 OA
ATOM      8  N   GLY A   4      -9.994  -8.895  20.800  0.00  0.00    -0.295 N 
ATOM      9  H   GLY A   4      -9.175  -8.379  20.419  0.00  0.00    +0.150 HD
BRANCH   8  10
ATOM     10  CA  GLY A   4     -10.314 -10.202  20.254  0.00  0.00    +0.176 C 
BRANCH  10  11
ATOM     11  C   GLY A   4      -9.112 -11.120  20.382  0.00  0.00    +0.243 C 
ATOM     12  N   ILE A   5      -9.305 -12.301  20.953  0.00  0.00    -0.298 N 
ATOM     13  H   ILE A   5     -10.262 -12.585  21.243  0.00  0.00    +0.150 HD
ATOM     14  O   GLY A   4      -8.002 -10.752  19.982  0.00  0.00    -0.273 OA
BRANCH  12  15
ATOM     15  CA  ILE A   5      -8.179 -13.205  21.177  0.00  0.00    +0.137 C 
BRANCH  15  16
ATOM     16  CB  ILE A   5      -8.445 -14.139  22.385  0.00  0.00    +0.026 C 
ATOM     17  CG2 ILE A   5      -7.232 -15.032  22.669  0.00  0.00    +0.002 C 
BRANCH  16  18
ATOM     18  CG1 ILE A   5      -8.836 -13.326  23.627  0.00  0.00    +0.002 C 
ATOM     19  CD1 ILE A   5      -7.809 -12.288  24.057  0.00  0.00    +0.000 C 
ENDBRANCH  16  18
ENDBRANCH  15  16
BRANCH  15  20
ATOM     20  C   ILE A   5      -7.883 -14.054  19.953  0.00  0.00    +0.227 C 
ATOM     21  O   ILE A   5      -8.783 -14.709  19.423  0.00  0.00    -0.286 OA
ENDBRANCH  15  20
ENDBRANCH  12  15
ENDBRANCH  10  11
ENDBRANCH   8  10
ENDBRANCH   5   6
BRANCH   5  22
ATOM     22  CB  ILE A   3      -9.480  -7.216  23.639  0.00  0.00    +0.027 C 
ATOM     23  CG2 ILE A   3      -8.218  -8.052  23.453  0.00  0.00    +0.002 C 
BRANCH  22  24
ATOM     24  CG1 ILE A   3      -9.134  -5.887  24.312  0.00  0.00    +0.002 C 
ATOM     25  CD1 ILE A   3      -9.845  -5.700  25.649  0.00  0.00    +0.000 C 
ENDBRANCH  22  24
ENDBRANCH   5  22
ENDBRANCH   2   5
BRANCH   1  26
ATOM     26  CA  TYR A   2     -12.817  -4.229  22.037  0.00  0.00    +0.153 C 
BRANCH  26  29
ATOM     27  C   VAL A   1     -13.659  -1.957  21.877  0.00  0.00    +0.238 C 
ATOM     28  O   VAL A   1     -14.621  -2.221  22.588  0.00  0.00    -0.274 OA
ATOM     29  N   TYR A   2     -12.757  -2.865  21.521  0.00  0.00    -0.297 N 
ATOM     30  H   TYR A   2     -11.996  -2.600  20.864  0.00  0.00    +0.150 HD
BRANCH  27  31
ATOM     31  CA  VAL A   1     -13.444  -0.532  21.381  0.00  0.00    +0.145 C 
BRANCH  31  32
ATOM     32  CB  VAL A   1     -14.508  -0.179  20.314  0.00  0.00    +0.025 C 
ATOM     33  CG2 VAL A   1     -14.505   1.323  20.061  0.00  0.00    +0.002 C 
ATOM     34  CG1 VAL A   1     -14.251  -0.950  19.018  0.00  0.00    +0.002 C 
ENDBRANCH  31  32
BRANCH  31  35
ATOM     35  N   VAL A   1     -12.078  -0.214  20.919  0.00  0.00    -0.238 NA
ATOM     36  H   VAL A   1     -11.754  -0.588  20.004  0.00  0.00    +0.142 HD
ENDBRANCH  31  35
ENDBRANCH  27  31
ENDBRANCH  26  29
BRANCH  26  37
ATOM     37  CB  TYR A   2     -13.956  -5.042  21.389  0.00  0.00    +0.055 C 
BRANCH  37  38
ATOM     38  CG  TYR A   2     -13.937  -5.181  19.868  0.00  0.00    -0.020 A 
ATOM     39  CD2 TYR A   2     -12.986  -5.964  19.207  0.00  0.00    -0.001 A 
ATOM     40  CE2 TYR A   2     -13.014  -6.097  17.824  0.00  0.00    +0.036 A 
ATOM     41  CZ  TYR A   2     -13.999  -5.461  17.097  0.00  0.00    +0.134 A 
ATOM     42  CE1 TYR A   2     -14.960  -4.705  17.725  0.00  0.00    +0.036 A 
ATOM     43  CD1 TYR A   2     -14.925  -4.573  19.097  0.00  0.00    -0.001 A 
BRANCH  41  44
ATOM     44  OH  TYR A   2     -14.053  -5.577  15.735  0.00  0.00    -0.506 OA
ATOM     45  HH  TYR A   2     -13.305  -6.145  15.423  0.00  0.00    +0.292 HD
ENDBRANCH  41  44
ENDBRANCH  37  38
ENDBRANCH  26  37
ENDBRANCH   1  26
TORSDOF 18
REMARK  Name = ../refined-set-2016/4r75/4r75_pocket.pdb
REMARK  227 active torsions:
REMARK  status: ('A' for Active; 'I' for Inactive)
REMARK    1  A    between atoms: _1  and  _3
REMARK    2  A    between atoms: _3  and  _4
REMARK    3  A    between atoms: _3  and  _6
REMARK    4  A    between atoms: _8  and  _10
REMARK    5  A    between atoms: _10  and  _11
REMARK    6  A    between atoms: _10  and  _13
REMARK    7  A    between atoms: _13  and  _14
REMARK    8  A    between atoms: _16  and  _18
REMARK    9  A    between atoms: _18  and  _19
REMARK   10  A    between atoms: _22  and  _24
REMARK   11  A    between atoms: _24  and  _25
REMARK   12  A    between atoms: _24  and  _27
REMARK   13  A    between atoms: _27  and  _28
REMARK   14  A    between atoms: _31  and  _33
REMARK   15  A    between atoms: _33  and  _34
REMARK   16  A    between atoms: _33  and  _36
REMARK   17  A    between atoms: _36  and  _37
REMARK   18  A    between atoms: _42  and  _44
REMARK   19  A    between atoms: _44  and  _45
REMARK   20  A    between atoms: _44  and  _47
REMARK   21  A    between atoms: _47  and  _48
REMARK   22  A    between atoms: _48  and  _49
REMARK   23  A    between atoms: _51  and  _53
REMARK   24  A    between atoms: _53  and  _54
REMARK   25  A    between atoms: _53  and  _56
REMARK   26  A    between atoms: _56  and  _57
REMARK   27  A    between atoms: _57  and  _58
REMARK   28  A    between atoms: _58  and  _59
REMARK   29  A    between atoms: _68  and  _70
REMARK   30  A    between atoms: _70  and  _71
REMARK   31  A    between atoms: _70  and  _73
REMARK   32  A    between atoms: _73  and  _74
REMARK   33  A    between atoms: _79  and  _81
REMARK   34  A    between atoms: _81  and  _82
REMARK   35  A    between atoms: _84  and  _86
REMARK   36  A    between atoms: _86  and  _87
REMARK   37  A    between atoms: _86  and  _89
REMARK   38  A    between atoms: _89  and  _90
REMARK   39  A    between atoms: _92  and  _94
REMARK   40  A    between atoms: _94  and  _95
REMARK   41  A    between atoms: _97  and  _99
REMARK   42  A    between atoms: _99  and  _100
REMARK   43  A    between atoms: _99  and  _102
REMARK   44  A    between atoms: _102  and  _103
REMARK   45  A    between atoms: _105  and  _107
REMARK   46  A    between atoms: _107  and  _108
REMARK   47  A    between atoms: _107  and  _110
REMARK   48  A    between atoms: _110  and  _111
REMARK   49  A    between atoms: _114  and  _116
REMARK   50  A    between atoms: _116  and  _117
REMARK   51  A    between atoms: _116  and  _119
REMARK   52  A    between atoms: _119  and  _120
REMARK   53  A    between atoms: _126  and  _128
REMARK   54  A    between atoms: _128  and  _129
REMARK   55  A    between atoms: _128  and  _131
REMARK   56  A    between atoms: _131  and  _132
REMARK   57  A    between atoms: _142  and  _144
REMARK   58  A    between atoms: _144  and  _145
REMARK   59  A    between atoms: _144  and  _147
REMARK   60  A    between atoms: _147  and  _148
REMARK   61  A    between atoms: _153  and  _154
REMARK   62  A    between atoms: _156  and  _158
REMARK   63  A    between atoms: _158  and  _159
REMARK   64  A    between atoms: _161  and  _163
REMARK   65  A    between atoms: _163  and  _164
REMARK   66  A    between atoms: _166  and  _168
REMARK   67  A    between atoms: _168  and  _169
REMARK   68  A    between atoms: _168  and  _171
REMARK   69  A    between atoms: _171  and  _172
REMARK   70  A    between atoms: _175  and  _177
REMARK   71  A    between atoms: _177  and  _178
REMARK   72  A    between atoms: _177  and  _180
REMARK   73  A    between atoms: _180  and  _181
REMARK   74  A    between atoms: _184  and  _186
REMARK   75  A    between atoms: _186  and  _187
REMARK   76  A    between atoms: _186  and  _189
REMARK   77  A    between atoms: _189  and  _190
REMARK   78  A    between atoms: _194  and  _195
REMARK   79  A    between atoms: _200  and  _202
REMARK   80  A    between atoms: _202  and  _203
REMARK   81  A    between atoms: _202  and  _205
REMARK   82  A    between atoms: _205  and  _206
REMARK   83  A    between atoms: _206  and  _207
REMARK   84  A    between atoms: _212  and  _214
REMARK   85  A    between atoms: _214  and  _215
REMARK   86  A    between atoms: _214  and  _217
REMARK   87  A    between atoms: _220  and  _222
REMARK   88  A    between atoms: _222  and  _223
REMARK   89  A    between atoms: _222  and  _225
REMARK   90  A    between atoms: _225  and  _226
REMARK   91  A    between atoms: _231  and  _232
REMARK   92  A    between atoms: _234  and  _236
REMARK   93  A    between atoms: _236  and  _237
REMARK   94  A    between atoms: _236  and  _239
REMARK   95  A    between atoms: _239  and  _240
REMARK   96  A    between atoms: _243  and  _245
REMARK   97  A    between atoms: _245  and  _246
REMARK   98  A    between atoms: _248  and  _250
REMARK   99  A    between atoms: _250  and  _251
REMARK  100  A    between atoms: _250  and  _253
REMARK  101  A    between atoms: _253  and  _254
REMARK  102  A    between atoms: _257  and  _259
REMARK  103  A    between atoms: _259  and  _260
REMARK  104  A    between atoms: _263  and  _265
REMARK  105  A    between atoms: _265  and  _266
REMARK  106  A    between atoms: _265  and  _268
REMARK  107  A    between atoms: _268  and  _269
REMARK  108  A    between atoms: _272  and  _274
REMARK  109  A    between atoms: _274  and  _275
REMARK  110  A    between atoms: _274  and  _277
REMARK  111  A    between atoms: _277  and  _278
REMARK  112  A    between atoms: _280  and  _282
REMARK  113  A    between atoms: _282  and  _283
REMARK  114  A    between atoms: _282  and  _285
REMARK  115  A    between atoms: _285  and  _286
REMARK  116  A    between atoms: _288  and  _290
REMARK  117  A    between atoms: _290  and  _291
REMARK  118  A    between atoms: _293  and  _295
REMARK  119  A    between atoms: _295  and  _296
REMARK  120  A    between atoms: _295  and  _298
REMARK  121  A    between atoms: _298  and  _299
REMARK  122  A    between atoms: _302  and  _304
REMARK  123  A    between atoms: _304  and  _305
REMARK  124  A    between atoms: _308  and  _310
REMARK  125  A    between atoms: _310  and  _311
REMARK  126  A    between atoms: _310  and  _313
REMARK  127  A    between atoms: _313  and  _314
REMARK  128  A    between atoms: _319  and  _320
REMARK  129  A    between atoms: _322  and  _324
REMARK  130  A    between atoms: _324  and  _325
REMARK  131  A    between atoms: _324  and  _327
REMARK  132  A    between atoms: _327  and  _328
REMARK  133  A    between atoms: _331  and  _333
REMARK  134  A    between atoms: _333  and  _334
REMARK  135  A    between atoms: _337  and  _339
REMARK  136  A    between atoms: _339  and  _340
REMARK  137  A    between atoms: _339  and  _342
REMARK  138  A    between atoms: _342  and  _343
REMARK  139  A    between atoms: _346  and  _348
REMARK  140  A    between atoms: _348  and  _349
REMARK  141  A    between atoms: _348  and  _351
REMARK  142  A    between atoms: _351  and  _352
REMARK  143  A    between atoms: _352  and  _353
REMARK  144  A    between atoms: _353  and  _354
REMARK  145  A    between atoms: _354  and  _355
REMARK  146  A    between atoms: _359  and  _361
REMARK  147  A    between atoms: _361  and  _362
REMARK  148  A    between atoms: _361  and  _364
REMARK  149  A    between atoms: _364  and  _365
REMARK  150  A    between atoms: _367  and  _369
REMARK  151  A    between atoms: _369  and  _370
REMARK  152  A    between atoms: _372  and  _374
REMARK  153  A    between atoms: _374  and  _375
REMARK  154  A    between atoms: _374  and  _377
REMARK  155  A    between atoms: _377  and  _378
REMARK  156  A    between atoms: _381  and  _383
REMARK  157  A    between atoms: _383  and  _384
REMARK  158  A    between atoms: _383  and  _386
REMARK  159  A    between atoms: _386  and  _387
REMARK  160  A    between atoms: _390  and  _392
REMARK  161  A    between atoms: _392  and  _393
REMARK  162  A    between atoms: _396  and  _398
REMARK  163  A    between atoms: _398  and  _399
REMARK  164  A    between atoms: _401  and  _403
REMARK  165  A    between atoms: _403  and  _404
REMARK  166  A    between atoms: _403  and  _406
REMARK  167  A    between atoms: _406  and  _407
REMARK  168  A    between atoms: _413  and  _415
REMARK  169  A    between atoms: _415  and  _416
REMARK  170  A    between atoms: _415  and  _418
REMARK  171  A    between atoms: _418  and  _419
REMARK  172  A    between atoms: _422  and  _424
REMARK  173  A    between atoms: _424  and  _425
REMARK  174  A    between atoms: _424  and  _427
REMARK  175  A    between atoms: _427  and  _428
REMARK  176  A    between atoms: _433  and  _435
REMARK  177  A    between atoms: _435  and  _436
REMARK  178  A    between atoms: _435  and  _438
REMARK  179  A    between atoms: _438  and  _439
REMARK  180  A    between atoms: _442  and  _444
REMARK  181  A    between atoms: _444  and  _445
REMARK  182  A    between atoms: _444  and  _447
REMARK  183  A    between atoms: _447  and  _448
REMARK  184  A    between atoms: _453  and  _454
REMARK  185  A    between atoms: _456  and  _458
REMARK  186  A    between atoms: _458  and  _459
REMARK  187  A    between atoms: _458  and  _461
REMARK  188  A    between atoms: _461  and  _462
REMARK  189  A    between atoms: _465  and  _467
REMARK  190  A    between atoms: _467  and  _468
REMARK  191  A    between atoms: _467  and  _470
REMARK  192  A    between atoms: _470  and  _471
REMARK  193  A    between atoms: _471  and  _472
REMARK  194  A    between atoms: _475  and  _477
REMARK  195  A    between atoms: _477  and  _478
REMARK  196  A    between atoms: _477  and  _480
REMARK  197  A    between atoms: _480  and  _481
REMARK  198  A    between atoms: _484  and  _486
REMARK  199  A    between atoms: _486  and  _487
REMARK  200  A    between atoms: _489  and  _491
REMARK  201  A    between atoms: _491  and  _492
REMARK  202  A    between atoms: _494  and  _496
REMARK  203  A    between atoms: _496  and  _497
REMARK  204  A    between atoms: _496  and  _499
REMARK  205  A    between atoms: _499  and  _500
REMARK  206  A    between atoms: _500  and  _501
REMARK  207  A    between atoms: _506  and  _508
REMARK  208  A    between atoms: _508  and  _509
REMARK  209  A    between atoms: _512  and  _514
REMARK  210  A    between atoms: _514  and  _515
REMARK  211  A    between atoms: _514  and  _517
REMARK  212  A    between atoms: _517  and  _518
REMARK  213  A    between atoms: _521  and  _523
REMARK  214  A    between atoms: _523  and  _524
REMARK  215  A    between atoms: _523  and  _526
REMARK  216  A    between atoms: _526  and  _527
REMARK  217  A    between atoms: _527  and  _528
REMARK  218  A    between atoms: _533  and  _535
REMARK  219  A    between atoms: _535  and  _536
REMARK  220  A    between atoms: _535  and  _538
REMARK  221  A    between atoms: _538  and  _539
REMARK  222  A    between atoms: _542  and  _544
REMARK  223  A    between atoms: _544  and  _545
REMARK  224  A    between atoms: _544  and  _547
REMARK  225  A    between atoms: _547  and  _548
REMARK  226  A    between atoms: _548  and  _549
REMARK  227  A    between atoms: _549  and  _550
REMARK                            x       y       z     vdW  Elec       q    Type
REMARK                         _______ _______ _______ _____ _____    ______ ____
ROOT
ATOM      1  C   ALA A   1      -6.226 -15.420   5.439  0.00  0.00    +0.238 C 
ATOM      2  O   ALA A   1      -5.165 -15.774   5.943  0.00  0.00    -0.274 OA
ATOM      3  N   ASP A   2      -6.306 -14.746   4.300  0.00  0.00    -0.298 N 
ATOM      4  H   ASP A   2      -7.248 -14.432   3.991  0.00  0.00    +0.150 HD
ENDROOT
BRANCH   1   5
ATOM      5  CA  ALA A   1      -7.572 -15.755   6.097  0.00  0.00    +0.145 C 
ATOM      6  CB  ALA A   1      -8.229 -14.512   6.673  0.00  0.00    +0.028 C 
BRANCH   5   7
ATOM      7  N   ALA A   1      -7.443 -16.776   7.114  0.00  0.00    -0.238 NA
ATOM      8  H   ALA A   1      -7.547 -16.529   8.119  0.00  0.00    +0.142 HD
ENDBRANCH   5   7
ENDBRANCH   1   5
BRANCH   3   9
ATOM      9  CA  ASP A   2      -5.170 -14.413   3.450  0.00  0.00    +0.148 C 
BRANCH   9  10
ATOM     10  C   ASP A   2      -4.480 -13.137   3.922  0.00  0.00    +0.227 C 
ATOM     11  O   ASP A   2      -5.107 -12.089   3.944  0.00  0.00    -0.286 OA
ENDBRANCH   9  10
BRANCH   9  12
ATOM     12  CB  ASP A   2      -5.709 -14.212   2.024  0.00  0.00    +0.142 C 
BRANCH  12  13
ATOM     13  CG  ASP A   2      -4.622 -14.052   0.981  0.00  0.00    +0.367 C 
ATOM     14  OD2 ASP A   2      -3.486 -13.697   1.324  0.00  0.00    -0.246 OA
ATOM     15  OD1 ASP A   2      -4.936 -14.270  -0.211  0.00  0.00    -0.246 OA
ENDBRANCH  12  13
ENDBRANCH   9  12
ENDBRANCH   3   9
TORSDOF 6
REMARK  Name = ../refined-set-2016/4r75/4r75_pocket.pdb
REMARK  227 active torsions:
REMARK  status: ('A' for Active; 'I' for Inactive)
REMARK    1  A    between atoms: _1  and  _3
REMARK    2  A    between atoms: _3  and  _4
REMARK    3  A    between atoms: _3  and  _6
REMARK    4  A    between atoms: _8  and  _10
REMARK    5  A    between atoms: _10  and  _11
REMARK    6  A    between atoms: _10  and  _13
REMARK    7  A    between atoms: _13  and  _14
REMARK    8  A    between atoms: _16  and  _18
REMARK    9  A    between atoms: _18  and  _19
REMARK   10  A    between atoms: _22  and  _24
REMARK   11  A    between atoms: _24  and  _25
REMARK   12  A    between atoms: _24  and  _27
REMARK   13  A    between atoms: _27  and  _28
REMARK   14  A    between atoms: _31  and  _33
REMARK   15  A    between atoms: _33  and  _34
REMARK   16  A    between atoms: _33  and  _36
REMARK   17  A    between atoms: _36  and  _37
REMARK   18  A    between atoms: _42  and  _44
REMARK   19  A    between atoms: _44  and  _45
REMARK   20  A    between atoms: _44  and  _47
REMARK   21  A    between atoms: _47  and  _48
REMARK   22  A    between atoms: _48  and  _49
REMARK   23  A    between atoms: _51  and  _53
REMARK   24  A    between atoms: _53  and  _54
REMARK   25  A    between atoms: _53  and  _56
REMARK   26  A    between atoms: _56  and  _57
REMARK   27  A    between atoms: _57  and  _58
REMARK   28  A    between atoms: _58  and  _59
REMARK   29  A    between atoms: _68  and  _70
REMARK   30  A    between atoms: _70  and  _71
REMARK   31  A    between atoms: _70  and  _73
REMARK   32  A    between atoms: _73  and  _74
REMARK   33  A    between atoms: _79  and  _81
REMARK   34  A    between atoms: _81  and  _82
REMARK   35  A    between atoms: _84  and  _86
REMARK   36  A    between atoms: _86  and  _87
REMARK   37  A    between atoms: _86  and  _89
REMARK   38  A    between atoms: _89  and  _90
REMARK   39  A    between atoms: _92  and  _94
REMARK   40  A    between atoms: _94  and  _95
REMARK   41  A    between atoms: _97  and  _99
REMARK   42  A    between atoms: _99  and  _100
REMARK   43  A    between atoms: _99  and  _102
REMARK   44  A    between atoms: _102  and  _103
REMARK   45  A    between atoms: _105  and  _107
REMARK   46  A    between atoms: _107  and  _108
REMARK   47  A    between atoms: _107  and  _110
REMARK   48  A    between atoms: _110  and  _111
REMARK   49  A    between atoms: _114  and  _116
REMARK   50  A    between atoms: _116  and  _117
REMARK   51  A    between atoms: _116  and  _119
REMARK   52  A    between atoms: _119  and  _120
REMARK   53  A    between atoms: _126  and  _128
REMARK   54  A    between atoms: _128  and  _129
REMARK   55  A    between atoms: _128  and  _131
REMARK   56  A    between atoms: _131  and  _132
REMARK   57  A    between atoms: _142  and  _144
REMARK   58  A    between atoms: _144  and  _145
REMARK   59  A    between atoms: _144  and  _147
REMARK   60  A    between atoms: _147  and  _148
REMARK   61  A    between atoms: _153  and  _154
REMARK   62  A    between atoms: _156  and  _158
REMARK   63  A    between atoms: _158  and  _159
REMARK   64  A    between atoms: _161  and  _163
REMARK   65  A    between atoms: _163  and  _164
REMARK   66  A    between atoms: _166  and  _168
REMARK   67  A    between atoms: _168  and  _169
REMARK   68  A    between atoms: _168  and  _171
REMARK   69  A    between atoms: _171  and  _172
REMARK   70  A    between atoms: _175  and  _177
REMARK   71  A    between atoms: _177  and  _178
REMARK   72  A    between atoms: _177  and  _180
REMARK   73  A    between atoms: _180  and  _181
REMARK   74  A    between atoms: _184  and  _186
REMARK   75  A    between atoms: _186  and  _187
REMARK   76  A    between atoms: _186  and  _189
REMARK   77  A    between atoms: _189  and  _190
REMARK   78  A    between atoms: _194  and  _195
REMARK   79  A    between atoms: _200  and  _202
REMARK   80  A    between atoms: _202  and  _203
REMARK   81  A    between atoms: _202  and  _205
REMARK   82  A    between atoms: _205  and  _206
REMARK   83  A    between atoms: _206  and  _207
REMARK   84  A    between atoms: _212  and  _214
REMARK   85  A    between atoms: _214  and  _215
REMARK   86  A    between atoms: _214  and  _217
REMARK   87  A    between atoms: _220  and  _222
REMARK   88  A    between atoms: _222  and  _223
REMARK   89  A    between atoms: _222  and  _225
REMARK   90  A    between atoms: _225  and  _226
REMARK   91  A    between atoms: _231  and  _232
REMARK   92  A    between atoms: _234  and  _236
REMARK   93  A    between atoms: _236  and  _237
REMARK   94  A    between atoms: _236  and  _239
REMARK   95  A    between atoms: _239  and  _240
REMARK   96  A    between atoms: _243  and  _245
REMARK   97  A    between atoms: _245  and  _246
REMARK   98  A    between atoms: _248  and  _250
REMARK   99  A    between atoms: _250  and  _251
REMARK  100  A    between atoms: _250  and  _253
REMARK  101  A    between atoms: _253  and  _254
REMARK  102  A    between atoms: _257  and  _259
REMARK  103  A    between atoms: _259  and  _260
REMARK  104  A    between atoms: _263  and  _265
REMARK  105  A    between atoms: _265  and  _266
REMARK  106  A    between atoms: _265  and  _268
REMARK  107  A    between atoms: _268  and  _269
REMARK  108  A    between atoms: _272  and  _274
REMARK  109  A    between atoms: _274  and  _275
REMARK  110  A    between atoms: _274  and  _277
REMARK  111  A    between atoms: _277  and  _278
REMARK  112  A    between atoms: _280  and  _282
REMARK  113  A    between atoms: _282  and  _283
REMARK  114  A    between atoms: _282  and  _285
REMARK  115  A    between atoms: _285  and  _286
REMARK  116  A    between atoms: _288  and  _290
REMARK  117  A    between atoms: _290  and  _291
REMARK  118  A    between atoms: _293  and  _295
REMARK  119  A    between atoms: _295  and  _296
REMARK  120  A    between atoms: _295  and  _298
REMARK  121  A    between atoms: _298  and  _299
REMARK  122  A    between atoms: _302  and  _304
REMARK  123  A    between atoms: _304  and  _305
REMARK  124  A    between atoms: _308  and  _310
REMARK  125  A    between atoms: _310  and  _311
REMARK  126  A    between atoms: _310  and  _313
REMARK  127  A    between atoms: _313  and  _314
REMARK  128  A    between atoms: _319  and  _320
REMARK  129  A    between atoms: _322  and  _324
REMARK  130  A    between atoms: _324  and  _325
REMARK  131  A    between atoms: _324  and  _327
REMARK  132  A    between atoms: _327  and  _328
REMARK  133  A    between atoms: _331  and  _333
REMARK  134  A    between atoms: _333  and  _334
REMARK  135  A    between atoms: _337  and  _339
REMARK  136  A    between atoms: _339  and  _340
REMARK  137  A    between atoms: _339  and  _342
REMARK  138  A    between atoms: _342  and  _343
REMARK  139  A    between atoms: _346  and  _348
REMARK  140  A    between atoms: _348  and  _349
REMARK  141  A    between atoms: _348  and  _351
REMARK  142  A    between atoms: _351  and  _352
REMARK  143  A    between atoms: _352  and  _353
REMARK  144  A    between atoms: _353  and  _354
REMARK  145  A    between atoms: _354  and  _355
REMARK  146  A    between atoms: _359  and  _361
REMARK  147  A    between atoms: _361  and  _362
REMARK  148  A    between atoms: _361  and  _364
REMARK  149  A    between atoms: _364  and  _365
REMARK  150  A    between atoms: _367  and  _369
REMARK  151  A    between atoms: _369  and  _370
REMARK  152  A    between atoms: _372  and  _374
REMARK  153  A    between atoms: _374  and  _375
REMARK  154  A    between atoms: _374  and  _377
REMARK  155  A    between atoms: _377  and  _378
REMARK  156  A    between atoms: _381  and  _383
REMARK  157  A    between atoms: _383  and  _384
REMARK  158  A    between atoms: _383  and  _386
REMARK  159  A    between atoms: _386  and  _387
REMARK  160  A    between atoms: _390  and  _392
REMARK  161  A    between atoms: _392  and  _393
REMARK  162  A    between atoms: _396  and  _398
REMARK  163  A    between atoms: _398  and  _399
REMARK  164  A    between atoms: _401  and  _403
REMARK  165  A    between atoms: _403  and  _404
REMARK  166  A    between atoms: _403  and  _406
REMARK  167  A    between atoms: _406  and  _407
REMARK  168  A    between atoms: _413  and  _415
REMARK  169  A    between atoms: _415  and  _416
REMARK  170  A    between atoms: _415  and  _418
REMARK  171  A    between atoms: _418  and  _419
REMARK  172  A    between atoms: _422  and  _424
REMARK  173  A    between atoms: _424  and  _425
REMARK  174  A    between atoms: _424  and  _427
REMARK  175  A    between atoms: _427  and  _428
REMARK  176  A    between atoms: _433  and  _435
REMARK  177  A    between atoms: _435  and  _436
REMARK  178  A    between atoms: _435  and  _438
REMARK  179  A    between atoms: _438  and  _439
REMARK  180  A    between atoms: _442  and  _444
REMARK  181  A    between atoms: _444  and  _445
REMARK  182  A    between atoms: _444  and  _447
REMARK  183  A    between atoms: _447  and  _448
REMARK  184  A    between atoms: _453  and  _454
REMARK  185  A    between atoms: _456  and  _458
REMARK  186  A    between atoms: _458  and  _459
REMARK  187  A    between atoms: _458  and  _461
REMARK  188  A    between atoms: _461  and  _462
REMARK  189  A    between atoms: _465  and  _467
REMARK  190  A    between atoms: _467  and  _468
REMARK  191  A    between atoms: _467  and  _470
REMARK  192  A    between atoms: _470  and  _471
REMARK  193  A    between atoms: _471  and  _472
REMARK  194  A    between atoms: _475  and  _477
REMARK  195  A    between atoms: _477  and  _478
REMARK  196  A    between atoms: _477  and  _480
REMARK  197  A    between atoms: _480  and  _481
REMARK  198  A    between atoms: _484  and  _486
REMARK  199  A    between atoms: _486  and  _487
REMARK  200  A    between atoms: _489  and  _491
REMARK  201  A    between atoms: _491  and  _492
REMARK  202  A    between atoms: _494  and  _496
REMARK  203  A    between atoms: _496  and  _497
REMARK  204  A    between atoms: _496  and  _499
REMARK  205  A    between atoms: _499  and  _500
REMARK  206  A    between atoms: _500  and  _501
REMARK  207  A    between atoms: _506  and  _508
REMARK  208  A    between atoms: _508  and  _509
REMARK  209  A    between atoms: _512  and  _514
REMARK  210  A    between atoms: _514  and  _515
REMARK  211  A    between atoms: _514  and  _517
REMARK  212  A    between atoms: _517  and  _518
REMARK  213  A    between atoms: _521  and  _523
REMARK  214  A    between atoms: _523  and  _524
REMARK  215  A    between atoms: _523  and  _526
REMARK  216  A    between atoms: _526  and  _527
REMARK  217  A    between atoms: _527  and  _528
REMARK  218  A    between atoms: _533  and  _535
REMARK  219  A    between atoms: _535  and  _536
REMARK  220  A    between atoms: _535  and  _538
REMARK  221  A    between atoms: _538  and  _539
REMARK  222  A    between atoms: _542  and  _544
REMARK  223  A    between atoms: _544  and  _545
REMARK  224  A    between atoms: _544  and  _547
REMARK  225  A    between atoms: _547  and  _548
REMARK  226  A    between atoms: _548  and  _549
REMARK  227  A    between atoms: _549  and  _550
REMARK                            x       y       z     vdW  Elec       q    Type
REMARK                         _______ _______ _______ _____ _____    ______ ____
ROOT
ATOM      1  CA  ALA A   5      -4.484 -12.674   8.996  0.00  0.00    +0.149 C 
ATOM      2  CB  ALA A   5      -4.522 -13.045   7.515  0.00  0.00    +0.031 C 
ENDROOT
BRANCH   1   5
ATOM      3  C   THR A   4      -5.938 -11.698  10.652  0.00  0.00    +0.243 C 
ATOM      4  O   THR A   4      -5.184 -12.067  11.564  0.00  0.00    -0.273 OA
ATOM      5  N   ALA A   5      -5.684 -11.948   9.371  0.00  0.00    -0.297 N 
ATOM      6  H   ALA A   5      -6.345 -11.623   8.637  0.00  0.00    +0.150 HD
BRANCH   3   7
ATOM      7  CA  THR A   4      -7.229 -10.946  10.947  0.00  0.00    +0.176 C 
BRANCH   7  10
ATOM      8  C   GLY A   3      -6.455  -8.848   9.954  0.00  0.00    +0.243 C 
ATOM      9  O   GLY A   3      -5.459  -8.817  10.667  0.00  0.00    -0.273 OA
ATOM     10  N   THR A   4      -7.371  -9.810  10.031  0.00  0.00    -0.295 N 
ATOM     11  H   THR A   4      -8.213  -9.754   9.423  0.00  0.00    +0.150 HD
BRANCH   8  12
ATOM     12  CA  GLY A   3      -6.701  -7.762   8.930  0.00  0.00    +0.176 C 
BRANCH  12  14
ATOM     13  C   SER A   2      -6.558  -9.105   6.919  0.00  0.00    +0.243 C 
ATOM     14  N   GLY A   3      -7.247  -8.274   7.689  0.00  0.00    -0.295 N 
ATOM     15  H   GLY A   3      -8.201  -7.983   7.396  0.00  0.00    +0.150 HD
ATOM     16  O   SER A   2      -5.400  -9.447   7.165  0.00  0.00    -0.273 OA
BRANCH  13  17
ATOM     17  CA  SER A   2      -7.327  -9.699   5.732  0.00  0.00    +0.178 C 
BRANCH  17  19
ATOM     18  C   SER A   1      -6.932  -8.848   3.497  0.00  0.00    +0.241 C 
ATOM     19  N   SER A   2      -6.597  -9.683   4.472  0.00  0.00    -0.295 N 
ATOM     20  H   SER A   2      -5.800 -10.337   4.334  0.00  0.00    +0.150 HD
ATOM     21  O   SER A   1      -7.658  -7.870   3.683  0.00  0.00    -0.274 OA
BRANCH  18  22
ATOM     22  CA  SER A   1      -6.364  -9.130   2.106  0.00  0.00    +0.174 C 
BRANCH  22  23
ATOM     23  N   SER A   1      -5.077  -9.817   2.114  0.00  0.00    -0.236 NA
ATOM     24  H   SER A   1      -4.985 -10.732   2.599  0.00  0.00    +0.142 HD
ENDBRANCH  22  23
BRANCH  22  25
ATOM     25  CB  SER A   1      -7.379  -9.931   1.285  0.00  0.00    +0.163 C 
BRANCH  25  26
ATOM     26  OG  SER A   1      -7.668 -11.171   1.897  0.00  0.00    -0.380 OA
ATOM     27  H   SER A   1      -8.045 -11.013   2.799  0.00  0.00    +0.211 HD
ENDBRANCH  25  26
ENDBRANCH  22  25
ENDBRANCH  18  22
ENDBRANCH  17  19
BRANCH  17  28
ATOM     28  CB  SER A   2      -7.715 -11.148   6.029  0.00  0.00    +0.166 C 
BRANCH  28  29
ATOM     29  OG  SER A   2      -7.987 -11.361   7.406  0.00  0.00    -0.380 OA
ATOM     30  H   SER A   2      -8.736 -10.778   7.687  0.00  0.00    +0.211 HD
ENDBRANCH  28  29
ENDBRANCH  17  28
ENDBRANCH  13  17
ENDBRANCH  12  14
ENDBRANCH   8  12
ENDBRANCH   7  10
BRANCH   7  31
ATOM     31  CB  THR A   4      -8.429 -11.886  10.791  0.00  0.00    +0.137 C 
ATOM     32  CG2 THR A   4      -8.346 -13.059  11.747  0.00  0.00    +0.034 C 
BRANCH  31  33
ATOM     33  OG1 THR A   4      -9.625 -11.137  11.044  0.00  0.00    -0.382 OA
ATOM     34  HG1 THR A   4      -9.690 -10.392  10.395  0.00  0.00    +0.210 HD
ENDBRANCH  31  33
ENDBRANCH   7  31
ENDBRANCH   3   7
ENDBRANCH   1   5
BRANCH   1  35
ATOM     35  C   ALA A   5      -3.218 -11.883   9.323  0.00  0.00    +0.241 C 
ATOM     36  O   ALA A   5      -2.193 -12.458   9.722  0.00  0.00    -0.273 OA
ATOM     37  N   TYR A   6      -3.277 -10.564   9.165  0.00  0.00    -0.297 N 
ATOM     38  H   TYR A   6      -4.135 -10.123   8.777  0.00  0.00    +0.150 HD
BRANCH  37  39
ATOM     39  CA  TYR A   6      -2.140  -9.741   9.536  0.00  0.00    +0.153 C 
BRANCH  39  40
ATOM     40  C   TYR A   6      -1.884  -9.823  11.043  0.00  0.00    +0.241 C 
ATOM     41  N   THR A   7      -2.951  -9.760  11.840  0.00  0.00    -0.295 N 
ATOM     42  H   THR A   7      -3.894  -9.616  11.426  0.00  0.00    +0.150 HD
ATOM     43  O   TYR A   6      -0.740  -9.934  11.479  0.00  0.00    -0.273 OA
BRANCH  41  44
ATOM     44  CA  THR A   7      -2.811  -9.891  13.285  0.00  0.00    +0.176 C 
BRANCH  44  45
ATOM     45  C   THR A   7      -2.114 -11.198  13.628  0.00  0.00    +0.243 C 
ATOM     46  O   THR A   7      -1.295 -11.269  14.536  0.00  0.00    -0.273 OA
ATOM     47  N   ALA A   8      -2.463 -12.242  12.893  0.00  0.00    -0.298 N 
ATOM     48  H   ALA A   8      -3.203 -12.142  12.169  0.00  0.00    +0.150 HD
BRANCH  47  49
ATOM     49  CA  ALA A   8      -1.815 -13.529  13.095  0.00  0.00    +0.137 C 
ATOM     50  CB  ALA A   8      -2.498 -14.614  12.261  0.00  0.00    +0.030 C 
BRANCH  49  51
ATOM     51  C   ALA A   8      -0.302 -13.487  12.818  0.00  0.00    +0.227 C 
ATOM     52  O   ALA A   8       0.493 -13.897  13.656  0.00  0.00    -0.286 OA
ENDBRANCH  49  51
ENDBRANCH  47  49
ENDBRANCH  44  45
BRANCH  44  53
ATOM     53  CB  THR A   7      -4.180  -9.844  13.985  0.00  0.00    +0.137 C 
ATOM     54  CG2 THR A   7      -4.030 -10.138  15.492  0.00  0.00    +0.034 C 
BRANCH  53  55
ATOM     55  OG1 THR A   7      -4.777  -8.555  13.784  0.00  0.00    -0.382 OA
ATOM     56  HG1 THR A   7      -4.187  -7.857  14.164  0.00  0.00    +0.210 HD
ENDBRANCH  53  55
ENDBRANCH  44  53
ENDBRANCH  41  44
ENDBRANCH  39  40
BRANCH  39  57
ATOM     57  CB  TYR A   6      -2.340  -8.290   9.094  0.00  0.00    +0.055 C 
BRANCH  57  58
ATOM     58  CG  TYR A   6      -1.157  -7.422   9.442  0.00  0.00    -0.020 A 
ATOM     59  CD2 TYR A   6      -1.245  -6.453  10.439  0.00  0.00    -0.001 A 
ATOM     60  CE2 TYR A   6      -0.150  -5.659  10.765  0.00  0.00    +0.036 A 
ATOM     61  CZ  TYR A   6       1.053  -5.856  10.098  0.00  0.00    +0.134 A 
ATOM     62  CE1 TYR A   6       1.163  -6.820   9.116  0.00  0.00    +0.036 A 
ATOM     63  CD1 TYR A   6       0.064  -7.598   8.796  0.00  0.00    -0.001 A 
BRANCH  61  64
ATOM     64  OH  TYR A   6       2.159  -5.082  10.405  0.00  0.00    -0.506 OA
ATOM     65  HH  TYR A   6       1.950  -4.129  10.239  0.00  0.00    +0.292 HD
ENDBRANCH  61  64
ENDBRANCH  57  58
ENDBRANCH  39  57
ENDBRANCH  37  39
ENDBRANCH   1  35
TORSDOF 27
REMARK  Name = ../refined-set-2016/4r75/4r75_pocket.pdb
REMARK  227 active torsions:
REMARK  status: ('A' for Active; 'I' for Inactive)
REMARK    1  A    between atoms: _1  and  _3
REMARK    2  A    between atoms: _3  and  _4
REMARK    3  A    between atoms: _3  and  _6
REMARK    4  A    between atoms: _8  and  _10
REMARK    5  A    between atoms: _10  and  _11
REMARK    6  A    between atoms: _10  and  _13
REMARK    7  A    between atoms: _13  and  _14
REMARK    8  A    between atoms: _16  and  _18
REMARK    9  A    between atoms: _18  and  _19
REMARK   10  A    between atoms: _22  and  _24
REMARK   11  A    between atoms: _24  and  _25
REMARK   12  A    between atoms: _24  and  _27
REMARK   13  A    between atoms: _27  and  _28
REMARK   14  A    between atoms: _31  and  _33
REMARK   15  A    between atoms: _33  and  _34
REMARK   16  A    between atoms: _33  and  _36
REMARK   17  A    between atoms: _36  and  _37
REMARK   18  A    between atoms: _42  and  _44
REMARK   19  A    between atoms: _44  and  _45
REMARK   20  A    between atoms: _44  and  _47
REMARK   21  A    between atoms: _47  and  _48
REMARK   22  A    between atoms: _48  and  _49
REMARK   23  A    between atoms: _51  and  _53
REMARK   24  A    between atoms: _53  and  _54
REMARK   25  A    between atoms: _53  and  _56
REMARK   26  A    between atoms: _56  and  _57
REMARK   27  A    between atoms: _57  and  _58
REMARK   28  A    between atoms: _58  and  _59
REMARK   29  A    between atoms: _68  and  _70
REMARK   30  A    between atoms: _70  and  _71
REMARK   31  A    between atoms: _70  and  _73
REMARK   32  A    between atoms: _73  and  _74
REMARK   33  A    between atoms: _79  and  _81
REMARK   34  A    between atoms: _81  and  _82
REMARK   35  A    between atoms: _84  and  _86
REMARK   36  A    between atoms: _86  and  _87
REMARK   37  A    between atoms: _86  and  _89
REMARK   38  A    between atoms: _89  and  _90
REMARK   39  A    between atoms: _92  and  _94
REMARK   40  A    between atoms: _94  and  _95
REMARK   41  A    between atoms: _97  and  _99
REMARK   42  A    between atoms: _99  and  _100
REMARK   43  A    between atoms: _99  and  _102
REMARK   44  A    between atoms: _102  and  _103
REMARK   45  A    between atoms: _105  and  _107
REMARK   46  A    between atoms: _107  and  _108
REMARK   47  A    between atoms: _107  and  _110
REMARK   48  A    between atoms: _110  and  _111
REMARK   49  A    between atoms: _114  and  _116
REMARK   50  A    between atoms: _116  and  _117
REMARK   51  A    between atoms: _116  and  _119
REMARK   52  A    between atoms: _119  and  _120
REMARK   53  A    between atoms: _126  and  _128
REMARK   54  A    between atoms: _128  and  _129
REMARK   55  A    between atoms: _128  and  _131
REMARK   56  A    between atoms: _131  and  _132
REMARK   57  A    between atoms: _142  and  _144
REMARK   58  A    between atoms: _144  and  _145
REMARK   59  A    between atoms: _144  and  _147
REMARK   60  A    between atoms: _147  and  _148
REMARK   61  A    between atoms: _153  and  _154
REMARK   62  A    between atoms: _156  and  _158
REMARK   63  A    between atoms: _158  and  _159
REMARK   64  A    between atoms: _161  and  _163
REMARK   65  A    between atoms: _163  and  _164
REMARK   66  A    between atoms: _166  and  _168
REMARK   67  A    between atoms: _168  and  _169
REMARK   68  A    between atoms: _168  and  _171
REMARK   69  A    between atoms: _171  and  _172
REMARK   70  A    between atoms: _175  and  _177
REMARK   71  A    between atoms: _177  and  _178
REMARK   72  A    between atoms: _177  and  _180
REMARK   73  A    between atoms: _180  and  _181
REMARK   74  A    between atoms: _184  and  _186
REMARK   75  A    between atoms: _186  and  _187
REMARK   76  A    between atoms: _186  and  _189
REMARK   77  A    between atoms: _189  and  _190
REMARK   78  A    between atoms: _194  and  _195
REMARK   79  A    between atoms: _200  and  _202
REMARK   80  A    between atoms: _202  and  _203
REMARK   81  A    between atoms: _202  and  _205
REMARK   82  A    between atoms: _205  and  _206
REMARK   83  A    between atoms: _206  and  _207
REMARK   84  A    between atoms: _212  and  _214
REMARK   85  A    between atoms: _214  and  _215
REMARK   86  A    between atoms: _214  and  _217
REMARK   87  A    between atoms: _220  and  _222
REMARK   88  A    between atoms: _222  and  _223
REMARK   89  A    between atoms: _222  and  _225
REMARK   90  A    between atoms: _225  and  _226
REMARK   91  A    between atoms: _231  and  _232
REMARK   92  A    between atoms: _234  and  _236
REMARK   93  A    between atoms: _236  and  _237
REMARK   94  A    between atoms: _236  and  _239
REMARK   95  A    between atoms: _239  and  _240
REMARK   96  A    between atoms: _243  and  _245
REMARK   97  A    between atoms: _245  and  _246
REMARK   98  A    between atoms: _248  and  _250
REMARK   99  A    between atoms: _250  and  _251
REMARK  100  A    between atoms: _250  and  _253
REMARK  101  A    between atoms: _253  and  _254
REMARK  102  A    between atoms: _257  and  _259
REMARK  103  A    between atoms: _259  and  _260
REMARK  104  A    between atoms: _263  and  _265
REMARK  105  A    between atoms: _265  and  _266
REMARK  106  A    between atoms: _265  and  _268
REMARK  107  A    between atoms: _268  and  _269
REMARK  108  A    between atoms: _272  and  _274
REMARK  109  A    between atoms: _274  and  _275
REMARK  110  A    between atoms: _274  and  _277
REMARK  111  A    between atoms: _277  and  _278
REMARK  112  A    between atoms: _280  and  _282
REMARK  113  A    between atoms: _282  and  _283
REMARK  114  A    between atoms: _282  and  _285
REMARK  115  A    between atoms: _285  and  _286
REMARK  116  A    between atoms: _288  and  _290
REMARK  117  A    between atoms: _290  and  _291
REMARK  118  A    between atoms: _293  and  _295
REMARK  119  A    between atoms: _295  and  _296
REMARK  120  A    between atoms: _295  and  _298
REMARK  121  A    between atoms: _298  and  _299
REMARK  122  A    between atoms: _302  and  _304
REMARK  123  A    between atoms: _304  and  _305
REMARK  124  A    between atoms: _308  and  _310
REMARK  125  A    between atoms: _310  and  _311
REMARK  126  A    between atoms: _310  and  _313
REMARK  127  A    between atoms: _313  and  _314
REMARK  128  A    between atoms: _319  and  _320
REMARK  129  A    between atoms: _322  and  _324
REMARK  130  A    between atoms: _324  and  _325
REMARK  131  A    between atoms: _324  and  _327
REMARK  132  A    between atoms: _327  and  _328
REMARK  133  A    between atoms: _331  and  _333
REMARK  134  A    between atoms: _333  and  _334
REMARK  135  A    between atoms: _337  and  _339
REMARK  136  A    between atoms: _339  and  _340
REMARK  137  A    between atoms: _339  and  _342
REMARK  138  A    between atoms: _342  and  _343
REMARK  139  A    between atoms: _346  and  _348
REMARK  140  A    between atoms: _348  and  _349
REMARK  141  A    between atoms: _348  and  _351
REMARK  142  A    between atoms: _351  and  _352
REMARK  143  A    between atoms: _352  and  _353
REMARK  144  A    between atoms: _353  and  _354
REMARK  145  A    between atoms: _354  and  _355
REMARK  146  A    between atoms: _359  and  _361
REMARK  147  A    between atoms: _361  and  _362
REMARK  148  A    between atoms: _361  and  _364
REMARK  149  A    between atoms: _364  and  _365
REMARK  150  A    between atoms: _367  and  _369
REMARK  151  A    between atoms: _369  and  _370
REMARK  152  A    between atoms: _372  and  _374
REMARK  153  A    between atoms: _374  and  _375
REMARK  154  A    between atoms: _374  and  _377
REMARK  155  A    between atoms: _377  and  _378
REMARK  156  A    between atoms: _381  and  _383
REMARK  157  A    between atoms: _383  and  _384
REMARK  158  A    between atoms: _383  and  _386
REMARK  159  A    between atoms: _386  and  _387
REMARK  160  A    between atoms: _390  and  _392
REMARK  161  A    between atoms: _392  and  _393
REMARK  162  A    between atoms: _396  and  _398
REMARK  163  A    between atoms: _398  and  _399
REMARK  164  A    between atoms: _401  and  _403
REMARK  165  A    between atoms: _403  and  _404
REMARK  166  A    between atoms: _403  and  _406
REMARK  167  A    between atoms: _406  and  _407
REMARK  168  A    between atoms: _413  and  _415
REMARK  169  A    between atoms: _415  and  _416
REMARK  170  A    between atoms: _415  and  _418
REMARK  171  A    between atoms: _418  and  _419
REMARK  172  A    between atoms: _422  and  _424
REMARK  173  A    between atoms: _424  and  _425
REMARK  174  A    between atoms: _424  and  _427
REMARK  175  A    between atoms: _427  and  _428
REMARK  176  A    between atoms: _433  and  _435
REMARK  177  A    between atoms: _435  and  _436
REMARK  178  A    between atoms: _435  and  _438
REMARK  179  A    between atoms: _438  and  _439
REMARK  180  A    between atoms: _442  and  _444
REMARK  181  A    between atoms: _444  and  _445
REMARK  182  A    between atoms: _444  and  _447
REMARK  183  A    between atoms: _447  and  _448
REMARK  184  A    between atoms: _453  and  _454
REMARK  185  A    between atoms: _456  and  _458
REMARK  186  A    between atoms: _458  and  _459
REMARK  187  A    between atoms: _458  and  _461
REMARK  188  A    between atoms: _461  and  _462
REMARK  189  A    between atoms: _465  and  _467
REMARK  190  A    between atoms: _467  and  _468
REMARK  191  A    between atoms: _467  and  _470
REMARK  192  A    between atoms: _470  and  _471
REMARK  193  A    between atoms: _471  and  _472
REMARK  194  A    between atoms: _475  and  _477
REMARK  195  A    between atoms: _477  and  _478
REMARK  196  A    between atoms: _477  and  _480
REMARK  197  A    between atoms: _480  and  _481
REMARK  198  A    between atoms: _484  and  _486
REMARK  199  A    between atoms: _486  and  _487
REMARK  200  A    between atoms: _489  and  _491
REMARK  201  A    between atoms: _491  and  _492
REMARK  202  A    between atoms: _494  and  _496
REMARK  203  A    between atoms: _496  and  _497
REMARK  204  A    between atoms: _496  and  _499
REMARK  205  A    between atoms: _499  and  _500
REMARK  206  A    between atoms: _500  and  _501
REMARK  207  A    between atoms: _506  and  _508
REMARK  208  A    between atoms: _508  and  _509
REMARK  209  A    between atoms: _512  and  _514
REMARK  210  A    between atoms: _514  and  _515
REMARK  211  A    between atoms: _514  and  _517
REMARK  212  A    between atoms: _517  and  _518
REMARK  213  A    between atoms: _521  and  _523
REMARK  214  A    between atoms: _523  and  _524
REMARK  215  A    between atoms: _523  and  _526
REMARK  216  A    between atoms: _526  and  _527
REMARK  217  A    between atoms: _527  and  _528
REMARK  218  A    between atoms: _533  and  _535
REMARK  219  A    between atoms: _535  and  _536
REMARK  220  A    between atoms: _535  and  _538
REMARK  221  A    between atoms: _538  and  _539
REMARK  222  A    between atoms: _542  and  _544
REMARK  223  A    between atoms: _544  and  _545
REMARK  224  A    between atoms: _544  and  _547
REMARK  225  A    between atoms: _547  and  _548
REMARK  226  A    between atoms: _548  and  _549
REMARK  227  A    between atoms: _549  and  _550
REMARK                            x       y       z     vdW  Elec       q    Type
REMARK                         _______ _______ _______ _____ _____    ______ ____
ROOT
ATOM      1  CA  SER A   3     -12.610 -12.721   4.975  0.00  0.00    +0.178 C 
ENDROOT
BRANCH   1   3
ATOM      2  C   LYS A   2     -11.058 -12.663   3.091  0.00  0.00    +0.241 C 
ATOM      3  N   SER A   3     -12.067 -13.254   3.721  0.00  0.00    -0.295 N 
ATOM      4  H   SER A   3     -12.483 -14.117   3.315  0.00  0.00    +0.150 HD
ATOM      5  O   LYS A   2     -10.534 -11.637   3.501  0.00  0.00    -0.273 OA
BRANCH   2   6
ATOM      6  CA  LYS A   2     -10.560 -13.327   1.815  0.00  0.00    +0.149 C 
BRANCH   6   9
ATOM      7  C   THR A   1      -9.752 -15.420   2.700  0.00  0.00    +0.241 C 
ATOM      8  O   THR A   1      -8.853 -14.820   3.308  0.00  0.00    -0.274 OA
ATOM      9  N   LYS A   2     -10.625 -14.782   1.930  0.00  0.00    -0.297 N 
ATOM     10  H   LYS A   2     -11.352 -15.315   1.411  0.00  0.00    +0.150 HD
BRANCH   7  11
ATOM     11  CA  THR A   1      -9.891 -16.947   2.786  0.00  0.00    +0.172 C 
BRANCH  11  12
ATOM     12  N   THR A   1      -8.620 -17.610   3.049  0.00  0.00    -0.236 NA
ATOM     13  H   THR A   1      -8.369 -17.857   4.028  0.00  0.00    +0.142 HD
ENDBRANCH  11  12
BRANCH  11  14
ATOM     14  CB  THR A   1     -10.932 -17.351   3.854  0.00  0.00    +0.135 C 
ATOM     15  CG2 THR A   1     -11.059 -18.878   3.930  0.00  0.00    +0.034 C 
BRANCH  14  16
ATOM     16  OG1 THR A   1     -10.525 -16.858   5.138  0.00  0.00    -0.383 OA
ATOM     17  HG1 THR A   1     -10.455 -15.871   5.104  0.00  0.00    +0.210 HD
ENDBRANCH  14  16
ENDBRANCH  11  14
ENDBRANCH   7  11
ENDBRANCH   6   9
BRANCH   6  18
ATOM     18  CB  LYS A   2     -11.363 -12.832   0.606  0.00  0.00    +0.029 C 
BRANCH  18  19
ATOM     19  CG  LYS A   2     -10.848 -13.343  -0.736  0.00  0.00    +0.000 C 
BRANCH  19  20
ATOM     20  CD  LYS A   2      -9.468 -12.812  -1.063  0.00  0.00    -0.024 C 
BRANCH  20  21
ATOM     21  CE  LYS A   2      -9.120 -13.072  -2.526  0.00  0.00    -0.086 C 
BRANCH  21  22
ATOM     22  NZ  LYS A   2      -9.155 -14.521  -2.878  0.00  0.00    +0.380 N 
ATOM     23  HZ1 LYS A   2      -8.468 -15.036  -2.291  0.00  0.00    -0.089 HD
ATOM     24  HZ2 LYS A   2     -10.110 -14.895  -2.706  0.00  0.00    -0.089 HD
ATOM     25  HZ3 LYS A   2      -8.911 -14.639  -3.882  0.00  0.00    -0.089 HD
ENDBRANCH  21  22
ENDBRANCH  20  21
ENDBRANCH  19  20
ENDBRANCH  18  19
ENDBRANCH   6  18
ENDBRANCH   2   6
ENDBRANCH   1   3
BRANCH   1  26
ATOM     26  C   SER A   3     -11.978 -13.401   6.184  0.00  0.00    +0.243 C 
ATOM     27  N   GLY A   4     -11.663 -12.599   7.190  0.00  0.00    -0.295 N 
ATOM     28  H   GLY A   4     -11.800 -11.574   7.084  0.00  0.00    +0.150 HD
ATOM     29  O   SER A   3     -11.800 -14.631   6.212  0.00  0.00    -0.273 OA
BRANCH  27  30
ATOM     30  CA  GLY A   4     -11.132 -13.117   8.436  0.00  0.00    +0.176 C 
BRANCH  30  31
ATOM     31  C   GLY A   4     -12.063 -14.097   9.117  0.00  0.00    +0.243 C 
ATOM     32  O   GLY A   4     -11.588 -14.976   9.824  0.00  0.00    -0.273 OA
ATOM     33  N   ILE A   5     -13.374 -13.954   8.908  0.00  0.00    -0.297 N 
ATOM     34  H   ILE A   5     -13.710 -13.244   8.226  0.00  0.00    +0.150 HD
BRANCH  33  35
ATOM     35  CA  ILE A   5     -14.342 -14.781   9.624  0.00  0.00    +0.149 C 
BRANCH  35  36
ATOM     36  C   ILE A   5     -14.761 -16.076   8.903  0.00  0.00    +0.241 C 
ATOM     37  O   ILE A   5     -15.446 -16.926   9.484  0.00  0.00    -0.273 OA
ATOM     38  N   THR A   6     -14.353 -16.235   7.649  0.00  0.00    -0.296 N 
ATOM     39  H   THR A   6     -13.735 -15.523   7.211  0.00  0.00    +0.150 HD
BRANCH  38  40
ATOM     40  CA  THR A   6     -14.767 -17.398   6.890  0.00  0.00    +0.164 C 
BRANCH  40  41
ATOM     41  CB  THR A   6     -14.340 -17.281   5.429  0.00  0.00    +0.136 C 
ATOM     42  CG2 THR A   6     -14.630 -18.576   4.670  0.00  0.00    +0.034 C 
BRANCH  41  43
ATOM     43  OG1 THR A   6     -15.098 -16.223   4.837  0.00  0.00    -0.382 OA
ATOM     44  HG1 THR A   6     -16.063 -16.436   4.898  0.00  0.00    +0.210 HD
ENDBRANCH  41  43
ENDBRANCH  40  41
BRANCH  40  45
ATOM     45  C   THR A   6     -14.316 -18.711   7.529  0.00  0.00    +0.229 C 
ATOM     46  O   THR A   6     -15.083 -19.672   7.530  0.00  0.00    -0.286 OA
ENDBRANCH  40  45
ENDBRANCH  38  40
ENDBRANCH  35  36
BRANCH  35  47
ATOM     47  CB  ILE A   5     -15.605 -13.980  10.026  0.00  0.00    +0.027 C 
ATOM     48  CG2 ILE A   5     -15.231 -12.780  10.898  0.00  0.00    +0.002 C 
BRANCH  47  49
ATOM     49  CG1 ILE A   5     -16.430 -13.594   8.798  0.00  0.00    +0.002 C 
ATOM     50  CD1 ILE A   5     -17.716 -12.848   9.145  0.00  0.00    +0.000 C 
ENDBRANCH  47  49
ENDBRANCH  35  47
ENDBRANCH  33  35
ENDBRANCH  30  31
ENDBRANCH  27  30
ENDBRANCH   1  26
BRANCH   1  51
ATOM     51  CB  SER A   3     -14.134 -12.881   5.051  0.00  0.00    +0.166 C 
BRANCH  51  52
ATOM     52  OG  SER A   3     -14.635 -12.500   6.334  0.00  0.00    -0.380 OA
ATOM     53  H   SER A   3     -15.618 -12.614   6.350  0.00  0.00    +0.211 HD
ENDBRANCH  51  52
ENDBRANCH   1  51
TORSDOF 25
REMARK  Name = ../refined-set-2016/4r75/4r75_pocket.pdb
REMARK  227 active torsions:
REMARK  status: ('A' for Active; 'I' for Inactive)
REMARK    1  A    between atoms: _1  and  _3
REMARK    2  A    between atoms: _3  and  _4
REMARK    3  A    between atoms: _3  and  _6
REMARK    4  A    between atoms: _8  and  _10
REMARK    5  A    between atoms: _10  and  _11
REMARK    6  A    between atoms: _10  and  _13
REMARK    7  A    between atoms: _13  and  _14
REMARK    8  A    between atoms: _16  and  _18
REMARK    9  A    between atoms: _18  and  _19
REMARK   10  A    between atoms: _22  and  _24
REMARK   11  A    between atoms: _24  and  _25
REMARK   12  A    between atoms: _24  and  _27
REMARK   13  A    between atoms: _27  and  _28
REMARK   14  A    between atoms: _31  and  _33
REMARK   15  A    between atoms: _33  and  _34
REMARK   16  A    between atoms: _33  and  _36
REMARK   17  A    between atoms: _36  and  _37
REMARK   18  A    between atoms: _42  and  _44
REMARK   19  A    between atoms: _44  and  _45
REMARK   20  A    between atoms: _44  and  _47
REMARK   21  A    between atoms: _47  and  _48
REMARK   22  A    between atoms: _48  and  _49
REMARK   23  A    between atoms: _51  and  _53
REMARK   24  A    between atoms: _53  and  _54
REMARK   25  A    between atoms: _53  and  _56
REMARK   26  A    between atoms: _56  and  _57
REMARK   27  A    between atoms: _57  and  _58
REMARK   28  A    between atoms: _58  and  _59
REMARK   29  A    between atoms: _68  and  _70
REMARK   30  A    between atoms: _70  and  _71
REMARK   31  A    between atoms: _70  and  _73
REMARK   32  A    between atoms: _73  and  _74
REMARK   33  A    between atoms: _79  and  _81
REMARK   34  A    between atoms: _81  and  _82
REMARK   35  A    between atoms: _84  and  _86
REMARK   36  A    between atoms: _86  and  _87
REMARK   37  A    between atoms: _86  and  _89
REMARK   38  A    between atoms: _89  and  _90
REMARK   39  A    between atoms: _92  and  _94
REMARK   40  A    between atoms: _94  and  _95
REMARK   41  A    between atoms: _97  and  _99
REMARK   42  A    between atoms: _99  and  _100
REMARK   43  A    between atoms: _99  and  _102
REMARK   44  A    between atoms: _102  and  _103
REMARK   45  A    between atoms: _105  and  _107
REMARK   46  A    between atoms: _107  and  _108
REMARK   47  A    between atoms: _107  and  _110
REMARK   48  A    between atoms: _110  and  _111
REMARK   49  A    between atoms: _114  and  _116
REMARK   50  A    between atoms: _116  and  _117
REMARK   51  A    between atoms: _116  and  _119
REMARK   52  A    between atoms: _119  and  _120
REMARK   53  A    between atoms: _126  and  _128
REMARK   54  A    between atoms: _128  and  _129
REMARK   55  A    between atoms: _128  and  _131
REMARK   56  A    between atoms: _131  and  _132
REMARK   57  A    between atoms: _142  and  _144
REMARK   58  A    between atoms: _144  and  _145
REMARK   59  A    between atoms: _144  and  _147
REMARK   60  A    between atoms: _147  and  _148
REMARK   61  A    between atoms: _153  and  _154
REMARK   62  A    between atoms: _156  and  _158
REMARK   63  A    between atoms: _158  and  _159
REMARK   64  A    between atoms: _161  and  _163
REMARK   65  A    between atoms: _163  and  _164
REMARK   66  A    between atoms: _166  and  _168
REMARK   67  A    between atoms: _168  and  _169
REMARK   68  A    between atoms: _168  and  _171
REMARK   69  A    between atoms: _171  and  _172
REMARK   70  A    between atoms: _175  and  _177
REMARK   71  A    between atoms: _177  and  _178
REMARK   72  A    between atoms: _177  and  _180
REMARK   73  A    between atoms: _180  and  _181
REMARK   74  A    between atoms: _184  and  _186
REMARK   75  A    between atoms: _186  and  _187
REMARK   76  A    between atoms: _186  and  _189
REMARK   77  A    between atoms: _189  and  _190
REMARK   78  A    between atoms: _194  and  _195
REMARK   79  A    between atoms: _200  and  _202
REMARK   80  A    between atoms: _202  and  _203
REMARK   81  A    between atoms: _202  and  _205
REMARK   82  A    between atoms: _205  and  _206
REMARK   83  A    between atoms: _206  and  _207
REMARK   84  A    between atoms: _212  and  _214
REMARK   85  A    between atoms: _214  and  _215
REMARK   86  A    between atoms: _214  and  _217
REMARK   87  A    between atoms: _220  and  _222
REMARK   88  A    between atoms: _222  and  _223
REMARK   89  A    between atoms: _222  and  _225
REMARK   90  A    between atoms: _225  and  _226
REMARK   91  A    between atoms: _231  and  _232
REMARK   92  A    between atoms: _234  and  _236
REMARK   93  A    between atoms: _236  and  _237
REMARK   94  A    between atoms: _236  and  _239
REMARK   95  A    between atoms: _239  and  _240
REMARK   96  A    between atoms: _243  and  _245
REMARK   97  A    between atoms: _245  and  _246
REMARK   98  A    between atoms: _248  and  _250
REMARK   99  A    between atoms: _250  and  _251
REMARK  100  A    between atoms: _250  and  _253
REMARK  101  A    between atoms: _253  and  _254
REMARK  102  A    between atoms: _257  and  _259
REMARK  103  A    between atoms: _259  and  _260
REMARK  104  A    between atoms: _263  and  _265
REMARK  105  A    between atoms: _265  and  _266
REMARK  106  A    between atoms: _265  and  _268
REMARK  107  A    between atoms: _268  and  _269
REMARK  108  A    between atoms: _272  and  _274
REMARK  109  A    between atoms: _274  and  _275
REMARK  110  A    between atoms: _274  and  _277
REMARK  111  A    between atoms: _277  and  _278
REMARK  112  A    between atoms: _280  and  _282
REMARK  113  A    between atoms: _282  and  _283
REMARK  114  A    between atoms: _282  and  _285
REMARK  115  A    between atoms: _285  and  _286
REMARK  116  A    between atoms: _288  and  _290
REMARK  117  A    between atoms: _290  and  _291
REMARK  118  A    between atoms: _293  and  _295
REMARK  119  A    between atoms: _295  and  _296
REMARK  120  A    between atoms: _295  and  _298
REMARK  121  A    between atoms: _298  and  _299
REMARK  122  A    between atoms: _302  and  _304
REMARK  123  A    between atoms: _304  and  _305
REMARK  124  A    between atoms: _308  and  _310
REMARK  125  A    between atoms: _310  and  _311
REMARK  126  A    between atoms: _310  and  _313
REMARK  127  A    between atoms: _313  and  _314
REMARK  128  A    between atoms: _319  and  _320
REMARK  129  A    between atoms: _322  and  _324
REMARK  130  A    between atoms: _324  and  _325
REMARK  131  A    between atoms: _324  and  _327
REMARK  132  A    between atoms: _327  and  _328
REMARK  133  A    between atoms: _331  and  _333
REMARK  134  A    between atoms: _333  and  _334
REMARK  135  A    between atoms: _337  and  _339
REMARK  136  A    between atoms: _339  and  _340
REMARK  137  A    between atoms: _339  and  _342
REMARK  138  A    between atoms: _342  and  _343
REMARK  139  A    between atoms: _346  and  _348
REMARK  140  A    between atoms: _348  and  _349
REMARK  141  A    between atoms: _348  and  _351
REMARK  142  A    between atoms: _351  and  _352
REMARK  143  A    between atoms: _352  and  _353
REMARK  144  A    between atoms: _353  and  _354
REMARK  145  A    between atoms: _354  and  _355
REMARK  146  A    between atoms: _359  and  _361
REMARK  147  A    between atoms: _361  and  _362
REMARK  148  A    between atoms: _361  and  _364
REMARK  149  A    between atoms: _364  and  _365
REMARK  150  A    between atoms: _367  and  _369
REMARK  151  A    between atoms: _369  and  _370
REMARK  152  A    between atoms: _372  and  _374
REMARK  153  A    between atoms: _374  and  _375
REMARK  154  A    between atoms: _374  and  _377
REMARK  155  A    between atoms: _377  and  _378
REMARK  156  A    between atoms: _381  and  _383
REMARK  157  A    between atoms: _383  and  _384
REMARK  158  A    between atoms: _383  and  _386
REMARK  159  A    between atoms: _386  and  _387
REMARK  160  A    between atoms: _390  and  _392
REMARK  161  A    between atoms: _392  and  _393
REMARK  162  A    between atoms: _396  and  _398
REMARK  163  A    between atoms: _398  and  _399
REMARK  164  A    between atoms: _401  and  _403
REMARK  165  A    between atoms: _403  and  _404
REMARK  166  A    between atoms: _403  and  _406
REMARK  167  A    between atoms: _406  and  _407
REMARK  168  A    between atoms: _413  and  _415
REMARK  169  A    between atoms: _415  and  _416
REMARK  170  A    between atoms: _415  and  _418
REMARK  171  A    between atoms: _418  and  _419
REMARK  172  A    between atoms: _422  and  _424
REMARK  173  A    between atoms: _424  and  _425
REMARK  174  A    between atoms: _424  and  _427
REMARK  175  A    between atoms: _427  and  _428
REMARK  176  A    between atoms: _433  and  _435
REMARK  177  A    between atoms: _435  and  _436
REMARK  178  A    between atoms: _435  and  _438
REMARK  179  A    between atoms: _438  and  _439
REMARK  180  A    between atoms: _442  and  _444
REMARK  181  A    between atoms: _444  and  _445
REMARK  182  A    between atoms: _444  and  _447
REMARK  183  A    between atoms: _447  and  _448
REMARK  184  A    between atoms: _453  and  _454
REMARK  185  A    between atoms: _456  and  _458
REMARK  186  A    between atoms: _458  and  _459
REMARK  187  A    between atoms: _458  and  _461
REMARK  188  A    between atoms: _461  and  _462
REMARK  189  A    between atoms: _465  and  _467
REMARK  190  A    between atoms: _467  and  _468
REMARK  191  A    between atoms: _467  and  _470
REMARK  192  A    between atoms: _470  and  _471
REMARK  193  A    between atoms: _471  and  _472
REMARK  194  A    between atoms: _475  and  _477
REMARK  195  A    between atoms: _477  and  _478
REMARK  196  A    between atoms: _477  and  _480
REMARK  197  A    between atoms: _480  and  _481
REMARK  198  A    between atoms: _484  and  _486
REMARK  199  A    between atoms: _486  and  _487
REMARK  200  A    between atoms: _489  and  _491
REMARK  201  A    between atoms: _491  and  _492
REMARK  202  A    between atoms: _494  and  _496
REMARK  203  A    between atoms: _496  and  _497
REMARK  204  A    between atoms: _496  and  _499
REMARK  205  A    between atoms: _499  and  _500
REMARK  206  A    between atoms: _500  and  _501
REMARK  207  A    between atoms: _506  and  _508
REMARK  208  A    between atoms: _508  and  _509
REMARK  209  A    between atoms: _512  and  _514
REMARK  210  A    between atoms: _514  and  _515
REMARK  211  A    between atoms: _514  and  _517
REMARK  212  A    between atoms: _517  and  _518
REMARK  213  A    between atoms: _521  and  _523
REMARK  214  A    between atoms: _523  and  _524
REMARK  215  A    between atoms: _523  and  _526
REMARK  216  A    between atoms: _526  and  _527
REMARK  217  A    between atoms: _527  and  _528
REMARK  218  A    between atoms: _533  and  _535
REMARK  219  A    between atoms: _535  and  _536
REMARK  220  A    between atoms: _535  and  _538
REMARK  221  A    between atoms: _538  and  _539
REMARK  222  A    between atoms: _542  and  _544
REMARK  223  A    between atoms: _544  and  _545
REMARK  224  A    between atoms: _544  and  _547
REMARK  225  A    between atoms: _547  and  _548
REMARK  226  A    between atoms: _548  and  _549
REMARK  227  A    between atoms: _549  and  _550
REMARK                            x       y       z     vdW  Elec       q    Type
REMARK                         _______ _______ _______ _____ _____    ______ ____
ROOT
ATOM      1  CA  ALA A   1     -15.106 -19.761  11.674  0.00  0.00    +0.133 C 
ATOM      2  CB  ALA A   1     -15.390 -18.543  12.522  0.00  0.00    +0.027 C 
ENDROOT
BRANCH   1   3
ATOM      3  N   ALA A   1     -14.156 -19.448  10.610  0.00  0.00    -0.239 NA
ATOM      4  H   ALA A   1     -13.907 -18.458  10.411  0.00  0.00    +0.142 HD
ENDBRANCH   1   3
BRANCH   1   5
ATOM      5  C   ALA A   1     -16.408 -20.324  11.108  0.00  0.00    +0.224 C 
ATOM      6  O   ALA A   1     -16.969 -21.266  11.659  0.00  0.00    -0.287 OA
ENDBRANCH   1   5
TORSDOF 2
REMARK  Name = ../refined-set-2016/4r75/4r75_pocket.pdb
REMARK  227 active torsions:
REMARK  status: ('A' for Active; 'I' for Inactive)
REMARK    1  A    between atoms: _1  and  _3
REMARK    2  A    between atoms: _3  and  _4
REMARK    3  A    between atoms: _3  and  _6
REMARK    4  A    between atoms: _8  and  _10
REMARK    5  A    between atoms: _10  and  _11
REMARK    6  A    between atoms: _10  and  _13
REMARK    7  A    between atoms: _13  and  _14
REMARK    8  A    between atoms: _16  and  _18
REMARK    9  A    between atoms: _18  and  _19
REMARK   10  A    between atoms: _22  and  _24
REMARK   11  A    between atoms: _24  and  _25
REMARK   12  A    between atoms: _24  and  _27
REMARK   13  A    between atoms: _27  and  _28
REMARK   14  A    between atoms: _31  and  _33
REMARK   15  A    between atoms: _33  and  _34
REMARK   16  A    between atoms: _33  and  _36
REMARK   17  A    between atoms: _36  and  _37
REMARK   18  A    between atoms: _42  and  _44
REMARK   19  A    between atoms: _44  and  _45
REMARK   20  A    between atoms: _44  and  _47
REMARK   21  A    between atoms: _47  and  _48
REMARK   22  A    between atoms: _48  and  _49
REMARK   23  A    between atoms: _51  and  _53
REMARK   24  A    between atoms: _53  and  _54
REMARK   25  A    between atoms: _53  and  _56
REMARK   26  A    between atoms: _56  and  _57
REMARK   27  A    between atoms: _57  and  _58
REMARK   28  A    between atoms: _58  and  _59
REMARK   29  A    between atoms: _68  and  _70
REMARK   30  A    between atoms: _70  and  _71
REMARK   31  A    between atoms: _70  and  _73
REMARK   32  A    between atoms: _73  and  _74
REMARK   33  A    between atoms: _79  and  _81
REMARK   34  A    between atoms: _81  and  _82
REMARK   35  A    between atoms: _84  and  _86
REMARK   36  A    between atoms: _86  and  _87
REMARK   37  A    between atoms: _86  and  _89
REMARK   38  A    between atoms: _89  and  _90
REMARK   39  A    between atoms: _92  and  _94
REMARK   40  A    between atoms: _94  and  _95
REMARK   41  A    between atoms: _97  and  _99
REMARK   42  A    between atoms: _99  and  _100
REMARK   43  A    between atoms: _99  and  _102
REMARK   44  A    between atoms: _102  and  _103
REMARK   45  A    between atoms: _105  and  _107
REMARK   46  A    between atoms: _107  and  _108
REMARK   47  A    between atoms: _107  and  _110
REMARK   48  A    between atoms: _110  and  _111
REMARK   49  A    between atoms: _114  and  _116
REMARK   50  A    between atoms: _116  and  _117
REMARK   51  A    between atoms: _116  and  _119
REMARK   52  A    between atoms: _119  and  _120
REMARK   53  A    between atoms: _126  and  _128
REMARK   54  A    between atoms: _128  and  _129
REMARK   55  A    between atoms: _128  and  _131
REMARK   56  A    between atoms: _131  and  _132
REMARK   57  A    between atoms: _142  and  _144
REMARK   58  A    between atoms: _144  and  _145
REMARK   59  A    between atoms: _144  and  _147
REMARK   60  A    between atoms: _147  and  _148
REMARK   61  A    between atoms: _153  and  _154
REMARK   62  A    between atoms: _156  and  _158
REMARK   63  A    between atoms: _158  and  _159
REMARK   64  A    between atoms: _161  and  _163
REMARK   65  A    between atoms: _163  and  _164
REMARK   66  A    between atoms: _166  and  _168
REMARK   67  A    between atoms: _168  and  _169
REMARK   68  A    between atoms: _168  and  _171
REMARK   69  A    between atoms: _171  and  _172
REMARK   70  A    between atoms: _175  and  _177
REMARK   71  A    between atoms: _177  and  _178
REMARK   72  A    between atoms: _177  and  _180
REMARK   73  A    between atoms: _180  and  _181
REMARK   74  A    between atoms: _184  and  _186
REMARK   75  A    between atoms: _186  and  _187
REMARK   76  A    between atoms: _186  and  _189
REMARK   77  A    between atoms: _189  and  _190
REMARK   78  A    between atoms: _194  and  _195
REMARK   79  A    between atoms: _200  and  _202
REMARK   80  A    between atoms: _202  and  _203
REMARK   81  A    between atoms: _202  and  _205
REMARK   82  A    between atoms: _205  and  _206
REMARK   83  A    between atoms: _206  and  _207
REMARK   84  A    between atoms: _212  and  _214
REMARK   85  A    between atoms: _214  and  _215
REMARK   86  A    between atoms: _214  and  _217
REMARK   87  A    between atoms: _220  and  _222
REMARK   88  A    between atoms: _222  and  _223
REMARK   89  A    between atoms: _222  and  _225
REMARK   90  A    between atoms: _225  and  _226
REMARK   91  A    between atoms: _231  and  _232
REMARK   92  A    between atoms: _234  and  _236
REMARK   93  A    between atoms: _236  and  _237
REMARK   94  A    between atoms: _236  and  _239
REMARK   95  A    between atoms: _239  and  _240
REMARK   96  A    between atoms: _243  and  _245
REMARK   97  A    between atoms: _245  and  _246
REMARK   98  A    between atoms: _248  and  _250
REMARK   99  A    between atoms: _250  and  _251
REMARK  100  A    between atoms: _250  and  _253
REMARK  101  A    between atoms: _253  and  _254
REMARK  102  A    between atoms: _257  and  _259
REMARK  103  A    between atoms: _259  and  _260
REMARK  104  A    between atoms: _263  and  _265
REMARK  105  A    between atoms: _265  and  _266
REMARK  106  A    between atoms: _265  and  _268
REMARK  107  A    between atoms: _268  and  _269
REMARK  108  A    between atoms: _272  and  _274
REMARK  109  A    between atoms: _274  and  _275
REMARK  110  A    between atoms: _274  and  _277
REMARK  111  A    between atoms: _277  and  _278
REMARK  112  A    between atoms: _280  and  _282
REMARK  113  A    between atoms: _282  and  _283
REMARK  114  A    between atoms: _282  and  _285
REMARK  115  A    between atoms: _285  and  _286
REMARK  116  A    between atoms: _288  and  _290
REMARK  117  A    between atoms: _290  and  _291
REMARK  118  A    between atoms: _293  and  _295
REMARK  119  A    between atoms: _295  and  _296
REMARK  120  A    between atoms: _295  and  _298
REMARK  121  A    between atoms: _298  and  _299
REMARK  122  A    between atoms: _302  and  _304
REMARK  123  A    between atoms: _304  and  _305
REMARK  124  A    between atoms: _308  and  _310
REMARK  125  A    between atoms: _310  and  _311
REMARK  126  A    between atoms: _310  and  _313
REMARK  127  A    between atoms: _313  and  _314
REMARK  128  A    between atoms: _319  and  _320
REMARK  129  A    between atoms: _322  and  _324
REMARK  130  A    between atoms: _324  and  _325
REMARK  131  A    between atoms: _324  and  _327
REMARK  132  A    between atoms: _327  and  _328
REMARK  133  A    between atoms: _331  and  _333
REMARK  134  A    between atoms: _333  and  _334
REMARK  135  A    between atoms: _337  and  _339
REMARK  136  A    between atoms: _339  and  _340
REMARK  137  A    between atoms: _339  and  _342
REMARK  138  A    between atoms: _342  and  _343
REMARK  139  A    between atoms: _346  and  _348
REMARK  140  A    between atoms: _348  and  _349
REMARK  141  A    between atoms: _348  and  _351
REMARK  142  A    between atoms: _351  and  _352
REMARK  143  A    between atoms: _352  and  _353
REMARK  144  A    between atoms: _353  and  _354
REMARK  145  A    between atoms: _354  and  _355
REMARK  146  A    between atoms: _359  and  _361
REMARK  147  A    between atoms: _361  and  _362
REMARK  148  A    between atoms: _361  and  _364
REMARK  149  A    between atoms: _364  and  _365
REMARK  150  A    between atoms: _367  and  _369
REMARK  151  A    between atoms: _369  and  _370
REMARK  152  A    between atoms: _372  and  _374
REMARK  153  A    between atoms: _374  and  _375
REMARK  154  A    between atoms: _374  and  _377
REMARK  155  A    between atoms: _377  and  _378
REMARK  156  A    between atoms: _381  and  _383
REMARK  157  A    between atoms: _383  and  _384
REMARK  158  A    between atoms: _383  and  _386
REMARK  159  A    between atoms: _386  and  _387
REMARK  160  A    between atoms: _390  and  _392
REMARK  161  A    between atoms: _392  and  _393
REMARK  162  A    between atoms: _396  and  _398
REMARK  163  A    between atoms: _398  and  _399
REMARK  164  A    between atoms: _401  and  _403
REMARK  165  A    between atoms: _403  and  _404
REMARK  166  A    between atoms: _403  and  _406
REMARK  167  A    between atoms: _406  and  _407
REMARK  168  A    between atoms: _413  and  _415
REMARK  169  A    between atoms: _415  and  _416
REMARK  170  A    between atoms: _415  and  _418
REMARK  171  A    between atoms: _418  and  _419
REMARK  172  A    between atoms: _422  and  _424
REMARK  173  A    between atoms: _424  and  _425
REMARK  174  A    between atoms: _424  and  _427
REMARK  175  A    between atoms: _427  and  _428
REMARK  176  A    between atoms: _433  and  _435
REMARK  177  A    between atoms: _435  and  _436
REMARK  178  A    between atoms: _435  and  _438
REMARK  179  A    between atoms: _438  and  _439
REMARK  180  A    between atoms: _442  and  _444
REMARK  181  A    between atoms: _444  and  _445
REMARK  182  A    between atoms: _444  and  _447
REMARK  183  A    between atoms: _447  and  _448
REMARK  184  A    between atoms: _453  and  _454
REMARK  185  A    between atoms: _456  and  _458
REMARK  186  A    between atoms: _458  and  _459
REMARK  187  A    between atoms: _458  and  _461
REMARK  188  A    between atoms: _461  and  _462
REMARK  189  A    between atoms: _465  and  _467
REMARK  190  A    between atoms: _467  and  _468
REMARK  191  A    between atoms: _467  and  _470
REMARK  192  A    between atoms: _470  and  _471
REMARK  193  A    between atoms: _471  and  _472
REMARK  194  A    between atoms: _475  and  _477
REMARK  195  A    between atoms: _477  and  _478
REMARK  196  A    between atoms: _477  and  _480
REMARK  197  A    between atoms: _480  and  _481
REMARK  198  A    between atoms: _484  and  _486
REMARK  199  A    between atoms: _486  and  _487
REMARK  200  A    between atoms: _489  and  _491
REMARK  201  A    between atoms: _491  and  _492
REMARK  202  A    between atoms: _494  and  _496
REMARK  203  A    between atoms: _496  and  _497
REMARK  204  A    between atoms: _496  and  _499
REMARK  205  A    between atoms: _499  and  _500
REMARK  206  A    between atoms: _500  and  _501
REMARK  207  A    between atoms: _506  and  _508
REMARK  208  A    between atoms: _508  and  _509
REMARK  209  A    between atoms: _512  and  _514
REMARK  210  A    between atoms: _514  and  _515
REMARK  211  A    between atoms: _514  and  _517
REMARK  212  A    between atoms: _517  and  _518
REMARK  213  A    between atoms: _521  and  _523
REMARK  214  A    between atoms: _523  and  _524
REMARK  215  A    between atoms: _523  and  _526
REMARK  216  A    between atoms: _526  and  _527
REMARK  217  A    between atoms: _527  and  _528
REMARK  218  A    between atoms: _533  and  _535
REMARK  219  A    between atoms: _535  and  _536
REMARK  220  A    between atoms: _535  and  _538
REMARK  221  A    between atoms: _538  and  _539
REMARK  222  A    between atoms: _542  and  _544
REMARK  223  A    between atoms: _544  and  _545
REMARK  224  A    between atoms: _544  and  _547
REMARK  225  A    between atoms: _547  and  _548
REMARK  226  A    between atoms: _548  and  _549
REMARK  227  A    between atoms: _549  and  _550
REMARK                            x       y       z     vdW  Elec       q    Type
REMARK                         _______ _______ _______ _____ _____    ______ ____
ROOT
ATOM      1  CA  HIS A   4     -15.161 -14.829  19.949  0.00  0.00    +0.155 C 
ENDROOT
BRANCH   1   2
ATOM      2  C   HIS A   4     -16.070 -15.245  18.791  0.00  0.00    +0.241 C 
ATOM      3  O   HIS A   4     -17.255 -15.539  19.016  0.00  0.00    -0.273 OA
ATOM      4  N   ASP A   5     -15.546 -15.271  17.566  0.00  0.00    -0.297 N 
ATOM      5  H   ASP A   5     -14.552 -15.004  17.420  0.00  0.00    +0.150 HD
BRANCH   4   6
ATOM      6  CA  ASP A   5     -16.369 -15.675  16.428  0.00  0.00    +0.160 C 
BRANCH   6   7
ATOM      7  C   ASP A   5     -16.704 -17.151  16.496  0.00  0.00    +0.241 C 
ATOM      8  N   TYR A   6     -15.729 -17.951  16.909  0.00  0.00    -0.298 N 
ATOM      9  H   TYR A   6     -14.788 -17.548  17.089  0.00  0.00    +0.150 HD
ATOM     10  O   ASP A   5     -17.816 -17.573  16.164  0.00  0.00    -0.273 OA
BRANCH   8  11
ATOM     11  CA  TYR A   6     -15.939 -19.383  17.118  0.00  0.00    +0.141 C 
BRANCH  11  12
ATOM     12  C   TYR A   6     -16.827 -19.607  18.335  0.00  0.00    +0.227 C 
ATOM     13  O   TYR A   6     -17.654 -20.529  18.339  0.00  0.00    -0.286 OA
ENDBRANCH  11  12
BRANCH  11  14
ATOM     14  CB  TYR A   6     -14.595 -20.101  17.272  0.00  0.00    +0.054 C 
BRANCH  14  15
ATOM     15  CG  TYR A   6     -13.731 -19.936  16.050  0.00  0.00    -0.020 A 
ATOM     16  CD2 TYR A   6     -12.930 -18.810  15.892  0.00  0.00    -0.001 A 
ATOM     17  CE2 TYR A   6     -12.150 -18.646  14.765  0.00  0.00    +0.036 A 
ATOM     18  CZ  TYR A   6     -12.173 -19.615  13.786  0.00  0.00    +0.134 A 
ATOM     19  CE1 TYR A   6     -12.960 -20.743  13.926  0.00  0.00    +0.036 A 
ATOM     20  CD1 TYR A   6     -13.731 -20.893  15.042  0.00  0.00    -0.001 A 
BRANCH  18  21
ATOM     21  OH  TYR A   6     -11.409 -19.458  12.656  0.00  0.00    -0.506 OA
ATOM     22  HH  TYR A   6     -11.683 -18.631  12.186  0.00  0.00    +0.292 HD
ENDBRANCH  18  21
ENDBRANCH  14  15
ENDBRANCH  11  14
ENDBRANCH   8  11
ENDBRANCH   6   7
BRANCH   6  23
ATOM     23  CB  ASP A   5     -15.678 -15.352  15.107  0.00  0.00    +0.143 C 
BRANCH  23  24
ATOM     24  CG  ASP A   5     -15.527 -13.856  14.893  0.00  0.00    +0.367 C 
ATOM     25  OD2 ASP A   5     -16.510 -13.108  15.115  0.00  0.00    -0.246 OA
ATOM     26  OD1 ASP A   5     -14.430 -13.405  14.502  0.00  0.00    -0.246 OA
ENDBRANCH  23  24
ENDBRANCH   6  23
ENDBRANCH   4   6
ENDBRANCH   1   2
BRANCH   1  28
ATOM     27  C   LEU A   3     -13.446 -16.478  19.491  0.00  0.00    +0.241 C 
ATOM     28  N   HIS A   4     -13.764 -15.203  19.706  0.00  0.00    -0.297 N 
ATOM     29  H   HIS A   4     -13.023 -14.474  19.702  0.00  0.00    +0.150 HD
ATOM     30  O   LEU A   3     -14.295 -17.368  19.445  0.00  0.00    -0.273 OA
BRANCH  27  31
ATOM     31  CA  LEU A   3     -11.981 -16.827  19.268  0.00  0.00    +0.149 C 
BRANCH  31  33
ATOM     32  C   PHE A   2     -11.527 -15.394  17.353  0.00  0.00    +0.241 C 
ATOM     33  N   LEU A   3     -11.210 -15.800  18.579  0.00  0.00    -0.297 N 
ATOM     34  H   LEU A   3     -10.391 -15.374  19.058  0.00  0.00    +0.150 HD
ATOM     35  O   PHE A   2     -12.600 -15.686  16.797  0.00  0.00    -0.273 OA
BRANCH  32  36
ATOM     36  CA  PHE A   2     -10.473 -14.571  16.652  0.00  0.00    +0.153 C 
BRANCH  36  39
ATOM     37  C   GLY A   1      -9.192 -15.948  15.148  0.00  0.00    +0.240 C 
ATOM     38  O   GLY A   1      -8.473 -16.338  16.072  0.00  0.00    -0.274 OA
ATOM     39  N   PHE A   2     -10.214 -15.125  15.334  0.00  0.00    -0.297 N 
ATOM     40  H   PHE A   2     -10.832 -14.875  14.535  0.00  0.00    +0.150 HD
BRANCH  37  41
ATOM     41  CA  GLY A   1      -8.964 -16.442  13.737  0.00  0.00    +0.169 C 
BRANCH  41  42
ATOM     42  N   GLY A   1      -8.436 -17.800  13.776  0.00  0.00    -0.236 NA
ATOM     43  H   GLY A   1      -8.207 -18.231  14.694  0.00  0.00    +0.142 HD
ENDBRANCH  41  42
ENDBRANCH  37  41
ENDBRANCH  36  39
BRANCH  36  44
ATOM     44  CB  PHE A   2     -10.898 -13.112  16.520  0.00  0.00    +0.055 C 
BRANCH  44  45
ATOM     45  CG  PHE A   2      -9.809 -12.232  15.971  0.00  0.00    -0.020 A 
ATOM     46  CD2 PHE A   2      -8.535 -12.280  16.524  0.00  0.00    -0.004 A 
ATOM     47  CE2 PHE A   2      -7.507 -11.481  16.004  0.00  0.00    -0.000 A 
ATOM     48  CZ  PHE A   2      -7.761 -10.628  14.941  0.00  0.00    -0.000 A 
ATOM     49  CE1 PHE A   2      -9.027 -10.590  14.380  0.00  0.00    -0.000 A 
ATOM     50  CD1 PHE A   2     -10.035 -11.400  14.885  0.00  0.00    -0.004 A 
ENDBRANCH  44  45
ENDBRANCH  36  44
ENDBRANCH  32  36
ENDBRANCH  31  33
BRANCH  31  51
ATOM     51  CB  LEU A   3     -11.278 -17.255  20.564  0.00  0.00    +0.029 C 
BRANCH  51  52
ATOM     52  CG  LEU A   3      -9.979 -18.030  20.309  0.00  0.00    +0.002 C 
ATOM     53  CD2 LEU A   3      -9.258 -18.309  21.616  0.00  0.00    +0.000 C 
ATOM     54  CD1 LEU A   3     -10.304 -19.315  19.566  0.00  0.00    +0.000 C 
ENDBRANCH  51  52
ENDBRANCH  31  51
ENDBRANCH  27  31
ENDBRANCH   1  28
BRANCH   1  55
ATOM     55  CB  HIS A   4     -15.299 -13.332  20.255  0.00  0.00    +0.076 C 
BRANCH  55  56
ATOM     56  CG  HIS A   4     -14.737 -12.458  19.191  0.00  0.00    +0.082 A 
ATOM     57  ND1 HIS A   4     -13.439 -11.997  19.225  0.00  0.00    -0.227 NA
ATOM     58  CE1 HIS A   4     -13.218 -11.256  18.155  0.00  0.00    +0.199 A 
ATOM     59  NE2 HIS A   4     -14.327 -11.203  17.441  0.00  0.00    -0.221 NA
ATOM     60  CD2 HIS A   4     -15.297 -11.941  18.069  0.00  0.00    +0.115 A 
ENDBRANCH  55  56
ENDBRANCH   1  55
TORSDOF 23
REMARK  Name = ../refined-set-2016/4r75/4r75_pocket.pdb
REMARK  227 active torsions:
REMARK  status: ('A' for Active; 'I' for Inactive)
REMARK    1  A    between atoms: _1  and  _3
REMARK    2  A    between atoms: _3  and  _4
REMARK    3  A    between atoms: _3  and  _6
REMARK    4  A    between atoms: _8  and  _10
REMARK    5  A    between atoms: _10  and  _11
REMARK    6  A    between atoms: _10  and  _13
REMARK    7  A    between atoms: _13  and  _14
REMARK    8  A    between atoms: _16  and  _18
REMARK    9  A    between atoms: _18  and  _19
REMARK   10  A    between atoms: _22  and  _24
REMARK   11  A    between atoms: _24  and  _25
REMARK   12  A    between atoms: _24  and  _27
REMARK   13  A    between atoms: _27  and  _28
REMARK   14  A    between atoms: _31  and  _33
REMARK   15  A    between atoms: _33  and  _34
REMARK   16  A    between atoms: _33  and  _36
REMARK   17  A    between atoms: _36  and  _37
REMARK   18  A    between atoms: _42  and  _44
REMARK   19  A    between atoms: _44  and  _45
REMARK   20  A    between atoms: _44  and  _47
REMARK   21  A    between atoms: _47  and  _48
REMARK   22  A    between atoms: _48  and  _49
REMARK   23  A    between atoms: _51  and  _53
REMARK   24  A    between atoms: _53  and  _54
REMARK   25  A    between atoms: _53  and  _56
REMARK   26  A    between atoms: _56  and  _57
REMARK   27  A    between atoms: _57  and  _58
REMARK   28  A    between atoms: _58  and  _59
REMARK   29  A    between atoms: _68  and  _70
REMARK   30  A    between atoms: _70  and  _71
REMARK   31  A    between atoms: _70  and  _73
REMARK   32  A    between atoms: _73  and  _74
REMARK   33  A    between atoms: _79  and  _81
REMARK   34  A    between atoms: _81  and  _82
REMARK   35  A    between atoms: _84  and  _86
REMARK   36  A    between atoms: _86  and  _87
REMARK   37  A    between atoms: _86  and  _89
REMARK   38  A    between atoms: _89  and  _90
REMARK   39  A    between atoms: _92  and  _94
REMARK   40  A    between atoms: _94  and  _95
REMARK   41  A    between atoms: _97  and  _99
REMARK   42  A    between atoms: _99  and  _100
REMARK   43  A    between atoms: _99  and  _102
REMARK   44  A    between atoms: _102  and  _103
REMARK   45  A    between atoms: _105  and  _107
REMARK   46  A    between atoms: _107  and  _108
REMARK   47  A    between atoms: _107  and  _110
REMARK   48  A    between atoms: _110  and  _111
REMARK   49  A    between atoms: _114  and  _116
REMARK   50  A    between atoms: _116  and  _117
REMARK   51  A    between atoms: _116  and  _119
REMARK   52  A    between atoms: _119  and  _120
REMARK   53  A    between atoms: _126  and  _128
REMARK   54  A    between atoms: _128  and  _129
REMARK   55  A    between atoms: _128  and  _131
REMARK   56  A    between atoms: _131  and  _132
REMARK   57  A    between atoms: _142  and  _144
REMARK   58  A    between atoms: _144  and  _145
REMARK   59  A    between atoms: _144  and  _147
REMARK   60  A    between atoms: _147  and  _148
REMARK   61  A    between atoms: _153  and  _154
REMARK   62  A    between atoms: _156  and  _158
REMARK   63  A    between atoms: _158  and  _159
REMARK   64  A    between atoms: _161  and  _163
REMARK   65  A    between atoms: _163  and  _164
REMARK   66  A    between atoms: _166  and  _168
REMARK   67  A    between atoms: _168  and  _169
REMARK   68  A    between atoms: _168  and  _171
REMARK   69  A    between atoms: _171  and  _172
REMARK   70  A    between atoms: _175  and  _177
REMARK   71  A    between atoms: _177  and  _178
REMARK   72  A    between atoms: _177  and  _180
REMARK   73  A    between atoms: _180  and  _181
REMARK   74  A    between atoms: _184  and  _186
REMARK   75  A    between atoms: _186  and  _187
REMARK   76  A    between atoms: _186  and  _189
REMARK   77  A    between atoms: _189  and  _190
REMARK   78  A    between atoms: _194  and  _195
REMARK   79  A    between atoms: _200  and  _202
REMARK   80  A    between atoms: _202  and  _203
REMARK   81  A    between atoms: _202  and  _205
REMARK   82  A    between atoms: _205  and  _206
REMARK   83  A    between atoms: _206  and  _207
REMARK   84  A    between atoms: _212  and  _214
REMARK   85  A    between atoms: _214  and  _215
REMARK   86  A    between atoms: _214  and  _217
REMARK   87  A    between atoms: _220  and  _222
REMARK   88  A    between atoms: _222  and  _223
REMARK   89  A    between atoms: _222  and  _225
REMARK   90  A    between atoms: _225  and  _226
REMARK   91  A    between atoms: _231  and  _232
REMARK   92  A    between atoms: _234  and  _236
REMARK   93  A    between atoms: _236  and  _237
REMARK   94  A    between atoms: _236  and  _239
REMARK   95  A    between atoms: _239  and  _240
REMARK   96  A    between atoms: _243  and  _245
REMARK   97  A    between atoms: _245  and  _246
REMARK   98  A    between atoms: _248  and  _250
REMARK   99  A    between atoms: _250  and  _251
REMARK  100  A    between atoms: _250  and  _253
REMARK  101  A    between atoms: _253  and  _254
REMARK  102  A    between atoms: _257  and  _259
REMARK  103  A    between atoms: _259  and  _260
REMARK  104  A    between atoms: _263  and  _265
REMARK  105  A    between atoms: _265  and  _266
REMARK  106  A    between atoms: _265  and  _268
REMARK  107  A    between atoms: _268  and  _269
REMARK  108  A    between atoms: _272  and  _274
REMARK  109  A    between atoms: _274  and  _275
REMARK  110  A    between atoms: _274  and  _277
REMARK  111  A    between atoms: _277  and  _278
REMARK  112  A    between atoms: _280  and  _282
REMARK  113  A    between atoms: _282  and  _283
REMARK  114  A    between atoms: _282  and  _285
REMARK  115  A    between atoms: _285  and  _286
REMARK  116  A    between atoms: _288  and  _290
REMARK  117  A    between atoms: _290  and  _291
REMARK  118  A    between atoms: _293  and  _295
REMARK  119  A    between atoms: _295  and  _296
REMARK  120  A    between atoms: _295  and  _298
REMARK  121  A    between atoms: _298  and  _299
REMARK  122  A    between atoms: _302  and  _304
REMARK  123  A    between atoms: _304  and  _305
REMARK  124  A    between atoms: _308  and  _310
REMARK  125  A    between atoms: _310  and  _311
REMARK  126  A    between atoms: _310  and  _313
REMARK  127  A    between atoms: _313  and  _314
REMARK  128  A    between atoms: _319  and  _320
REMARK  129  A    between atoms: _322  and  _324
REMARK  130  A    between atoms: _324  and  _325
REMARK  131  A    between atoms: _324  and  _327
REMARK  132  A    between atoms: _327  and  _328
REMARK  133  A    between atoms: _331  and  _333
REMARK  134  A    between atoms: _333  and  _334
REMARK  135  A    between atoms: _337  and  _339
REMARK  136  A    between atoms: _339  and  _340
REMARK  137  A    between atoms: _339  and  _342
REMARK  138  A    between atoms: _342  and  _343
REMARK  139  A    between atoms: _346  and  _348
REMARK  140  A    between atoms: _348  and  _349
REMARK  141  A    between atoms: _348  and  _351
REMARK  142  A    between atoms: _351  and  _352
REMARK  143  A    between atoms: _352  and  _353
REMARK  144  A    between atoms: _353  and  _354
REMARK  145  A    between atoms: _354  and  _355
REMARK  146  A    between atoms: _359  and  _361
REMARK  147  A    between atoms: _361  and  _362
REMARK  148  A    between atoms: _361  and  _364
REMARK  149  A    between atoms: _364  and  _365
REMARK  150  A    between atoms: _367  and  _369
REMARK  151  A    between atoms: _369  and  _370
REMARK  152  A    between atoms: _372  and  _374
REMARK  153  A    between atoms: _374  and  _375
REMARK  154  A    between atoms: _374  and  _377
REMARK  155  A    between atoms: _377  and  _378
REMARK  156  A    between atoms: _381  and  _383
REMARK  157  A    between atoms: _383  and  _384
REMARK  158  A    between atoms: _383  and  _386
REMARK  159  A    between atoms: _386  and  _387
REMARK  160  A    between atoms: _390  and  _392
REMARK  161  A    between atoms: _392  and  _393
REMARK  162  A    between atoms: _396  and  _398
REMARK  163  A    between atoms: _398  and  _399
REMARK  164  A    between atoms: _401  and  _403
REMARK  165  A    between atoms: _403  and  _404
REMARK  166  A    between atoms: _403  and  _406
REMARK  167  A    between atoms: _406  and  _407
REMARK  168  A    between atoms: _413  and  _415
REMARK  169  A    between atoms: _415  and  _416
REMARK  170  A    between atoms: _415  and  _418
REMARK  171  A    between atoms: _418  and  _419
REMARK  172  A    between atoms: _422  and  _424
REMARK  173  A    between atoms: _424  and  _425
REMARK  174  A    between atoms: _424  and  _427
REMARK  175  A    between atoms: _427  and  _428
REMARK  176  A    between atoms: _433  and  _435
REMARK  177  A    between atoms: _435  and  _436
REMARK  178  A    between atoms: _435  and  _438
REMARK  179  A    between atoms: _438  and  _439
REMARK  180  A    between atoms: _442  and  _444
REMARK  181  A    between atoms: _444  and  _445
REMARK  182  A    between atoms: _444  and  _447
REMARK  183  A    between atoms: _447  and  _448
REMARK  184  A    between atoms: _453  and  _454
REMARK  185  A    between atoms: _456  and  _458
REMARK  186  A    between atoms: _458  and  _459
REMARK  187  A    between atoms: _458  and  _461
REMARK  188  A    between atoms: _461  and  _462
REMARK  189  A    between atoms: _465  and  _467
REMARK  190  A    between atoms: _467  and  _468
REMARK  191  A    between atoms: _467  and  _470
REMARK  192  A    between atoms: _470  and  _471
REMARK  193  A    between atoms: _471  and  _472
REMARK  194  A    between atoms: _475  and  _477
REMARK  195  A    between atoms: _477  and  _478
REMARK  196  A    between atoms: _477  and  _480
REMARK  197  A    between atoms: _480  and  _481
REMARK  198  A    between atoms: _484  and  _486
REMARK  199  A    between atoms: _486  and  _487
REMARK  200  A    between atoms: _489  and  _491
REMARK  201  A    between atoms: _491  and  _492
REMARK  202  A    between atoms: _494  and  _496
REMARK  203  A    between atoms: _496  and  _497
REMARK  204  A    between atoms: _496  and  _499
REMARK  205  A    between atoms: _499  and  _500
REMARK  206  A    between atoms: _500  and  _501
REMARK  207  A    between atoms: _506  and  _508
REMARK  208  A    between atoms: _508  and  _509
REMARK  209  A    between atoms: _512  and  _514
REMARK  210  A    between atoms: _514  and  _515
REMARK  211  A    between atoms: _514  and  _517
REMARK  212  A    between atoms: _517  and  _518
REMARK  213  A    between atoms: _521  and  _523
REMARK  214  A    between atoms: _523  and  _524
REMARK  215  A    between atoms: _523  and  _526
REMARK  216  A    between atoms: _526  and  _527
REMARK  217  A    between atoms: _527  and  _528
REMARK  218  A    between atoms: _533  and  _535
REMARK  219  A    between atoms: _535  and  _536
REMARK  220  A    between atoms: _535  and  _538
REMARK  221  A    between atoms: _538  and  _539
REMARK  222  A    between atoms: _542  and  _544
REMARK  223  A    between atoms: _544  and  _545
REMARK  224  A    between atoms: _544  and  _547
REMARK  225  A    between atoms: _547  and  _548
REMARK  226  A    between atoms: _548  and  _549
REMARK  227  A    between atoms: _549  and  _550
REMARK                            x       y       z     vdW  Elec       q    Type
REMARK                         _______ _______ _______ _____ _____    ______ ____
ROOT
ATOM      1  CA  LEU A   1     -20.701 -17.575  19.010  0.00  0.00    +0.133 C 
ENDROOT
BRANCH   1   2
ATOM      2  N   LEU A   1     -19.307 -17.792  19.381  0.00  0.00    -0.239 NA
ATOM      3  H   LEU A   1     -18.564 -17.185  18.979  0.00  0.00    +0.142 HD
ENDBRANCH   1   2
BRANCH   1   4
ATOM      4  C   LEU A   1     -21.234 -18.779  18.243  0.00  0.00    +0.224 C 
ATOM      5  O   LEU A   1     -22.332 -19.268  18.528  0.00  0.00    -0.287 OA
ENDBRANCH   1   4
BRANCH   1   6
ATOM      6  CB  LEU A   1     -20.857 -16.313  18.161  0.00  0.00    +0.025 C 
BRANCH   6   7
ATOM      7  CG  LEU A   1     -22.315 -15.986  17.819  0.00  0.00    +0.002 C 
ATOM      8  CD2 LEU A   1     -23.088 -15.574  19.066  0.00  0.00    +0.000 C 
ATOM      9  CD1 LEU A   1     -22.413 -14.907  16.760  0.00  0.00    +0.000 C 
ENDBRANCH   6   7
ENDBRANCH   1   6
TORSDOF 4
REMARK  Name = ../refined-set-2016/4r75/4r75_pocket.pdb
REMARK  227 active torsions:
REMARK  status: ('A' for Active; 'I' for Inactive)
REMARK    1  A    between atoms: _1  and  _3
REMARK    2  A    between atoms: _3  and  _4
REMARK    3  A    between atoms: _3  and  _6
REMARK    4  A    between atoms: _8  and  _10
REMARK    5  A    between atoms: _10  and  _11
REMARK    6  A    between atoms: _10  and  _13
REMARK    7  A    between atoms: _13  and  _14
REMARK    8  A    between atoms: _16  and  _18
REMARK    9  A    between atoms: _18  and  _19
REMARK   10  A    between atoms: _22  and  _24
REMARK   11  A    between atoms: _24  and  _25
REMARK   12  A    between atoms: _24  and  _27
REMARK   13  A    between atoms: _27  and  _28
REMARK   14  A    between atoms: _31  and  _33
REMARK   15  A    between atoms: _33  and  _34
REMARK   16  A    between atoms: _33  and  _36
REMARK   17  A    between atoms: _36  and  _37
REMARK   18  A    between atoms: _42  and  _44
REMARK   19  A    between atoms: _44  and  _45
REMARK   20  A    between atoms: _44  and  _47
REMARK   21  A    between atoms: _47  and  _48
REMARK   22  A    between atoms: _48  and  _49
REMARK   23  A    between atoms: _51  and  _53
REMARK   24  A    between atoms: _53  and  _54
REMARK   25  A    between atoms: _53  and  _56
REMARK   26  A    between atoms: _56  and  _57
REMARK   27  A    between atoms: _57  and  _58
REMARK   28  A    between atoms: _58  and  _59
REMARK   29  A    between atoms: _68  and  _70
REMARK   30  A    between atoms: _70  and  _71
REMARK   31  A    between atoms: _70  and  _73
REMARK   32  A    between atoms: _73  and  _74
REMARK   33  A    between atoms: _79  and  _81
REMARK   34  A    between atoms: _81  and  _82
REMARK   35  A    between atoms: _84  and  _86
REMARK   36  A    between atoms: _86  and  _87
REMARK   37  A    between atoms: _86  and  _89
REMARK   38  A    between atoms: _89  and  _90
REMARK   39  A    between atoms: _92  and  _94
REMARK   40  A    between atoms: _94  and  _95
REMARK   41  A    between atoms: _97  and  _99
REMARK   42  A    between atoms: _99  and  _100
REMARK   43  A    between atoms: _99  and  _102
REMARK   44  A    between atoms: _102  and  _103
REMARK   45  A    between atoms: _105  and  _107
REMARK   46  A    between atoms: _107  and  _108
REMARK   47  A    between atoms: _107  and  _110
REMARK   48  A    between atoms: _110  and  _111
REMARK   49  A    between atoms: _114  and  _116
REMARK   50  A    between atoms: _116  and  _117
REMARK   51  A    between atoms: _116  and  _119
REMARK   52  A    between atoms: _119  and  _120
REMARK   53  A    between atoms: _126  and  _128
REMARK   54  A    between atoms: _128  and  _129
REMARK   55  A    between atoms: _128  and  _131
REMARK   56  A    between atoms: _131  and  _132
REMARK   57  A    between atoms: _142  and  _144
REMARK   58  A    between atoms: _144  and  _145
REMARK   59  A    between atoms: _144  and  _147
REMARK   60  A    between atoms: _147  and  _148
REMARK   61  A    between atoms: _153  and  _154
REMARK   62  A    between atoms: _156  and  _158
REMARK   63  A    between atoms: _158  and  _159
REMARK   64  A    between atoms: _161  and  _163
REMARK   65  A    between atoms: _163  and  _164
REMARK   66  A    between atoms: _166  and  _168
REMARK   67  A    between atoms: _168  and  _169
REMARK   68  A    between atoms: _168  and  _171
REMARK   69  A    between atoms: _171  and  _172
REMARK   70  A    between atoms: _175  and  _177
REMARK   71  A    between atoms: _177  and  _178
REMARK   72  A    between atoms: _177  and  _180
REMARK   73  A    between atoms: _180  and  _181
REMARK   74  A    between atoms: _184  and  _186
REMARK   75  A    between atoms: _186  and  _187
REMARK   76  A    between atoms: _186  and  _189
REMARK   77  A    between atoms: _189  and  _190
REMARK   78  A    between atoms: _194  and  _195
REMARK   79  A    between atoms: _200  and  _202
REMARK   80  A    between atoms: _202  and  _203
REMARK   81  A    between atoms: _202  and  _205
REMARK   82  A    between atoms: _205  and  _206
REMARK   83  A    between atoms: _206  and  _207
REMARK   84  A    between atoms: _212  and  _214
REMARK   85  A    between atoms: _214  and  _215
REMARK   86  A    between atoms: _214  and  _217
REMARK   87  A    between atoms: _220  and  _222
REMARK   88  A    between atoms: _222  and  _223
REMARK   89  A    between atoms: _222  and  _225
REMARK   90  A    between atoms: _225  and  _226
REMARK   91  A    between atoms: _231  and  _232
REMARK   92  A    between atoms: _234  and  _236
REMARK   93  A    between atoms: _236  and  _237
REMARK   94  A    between atoms: _236  and  _239
REMARK   95  A    between atoms: _239  and  _240
REMARK   96  A    between atoms: _243  and  _245
REMARK   97  A    between atoms: _245  and  _246
REMARK   98  A    between atoms: _248  and  _250
REMARK   99  A    between atoms: _250  and  _251
REMARK  100  A    between atoms: _250  and  _253
REMARK  101  A    between atoms: _253  and  _254
REMARK  102  A    between atoms: _257  and  _259
REMARK  103  A    between atoms: _259  and  _260
REMARK  104  A    between atoms: _263  and  _265
REMARK  105  A    between atoms: _265  and  _266
REMARK  106  A    between atoms: _265  and  _268
REMARK  107  A    between atoms: _268  and  _269
REMARK  108  A    between atoms: _272  and  _274
REMARK  109  A    between atoms: _274  and  _275
REMARK  110  A    between atoms: _274  and  _277
REMARK  111  A    between atoms: _277  and  _278
REMARK  112  A    between atoms: _280  and  _282
REMARK  113  A    between atoms: _282  and  _283
REMARK  114  A    between atoms: _282  and  _285
REMARK  115  A    between atoms: _285  and  _286
REMARK  116  A    between atoms: _288  and  _290
REMARK  117  A    between atoms: _290  and  _291
REMARK  118  A    between atoms: _293  and  _295
REMARK  119  A    between atoms: _295  and  _296
REMARK  120  A    between atoms: _295  and  _298
REMARK  121  A    between atoms: _298  and  _299
REMARK  122  A    between atoms: _302  and  _304
REMARK  123  A    between atoms: _304  and  _305
REMARK  124  A    between atoms: _308  and  _310
REMARK  125  A    between atoms: _310  and  _311
REMARK  126  A    between atoms: _310  and  _313
REMARK  127  A    between atoms: _313  and  _314
REMARK  128  A    between atoms: _319  and  _320
REMARK  129  A    between atoms: _322  and  _324
REMARK  130  A    between atoms: _324  and  _325
REMARK  131  A    between atoms: _324  and  _327
REMARK  132  A    between atoms: _327  and  _328
REMARK  133  A    between atoms: _331  and  _333
REMARK  134  A    between atoms: _333  and  _334
REMARK  135  A    between atoms: _337  and  _339
REMARK  136  A    between atoms: _339  and  _340
REMARK  137  A    between atoms: _339  and  _342
REMARK  138  A    between atoms: _342  and  _343
REMARK  139  A    between atoms: _346  and  _348
REMARK  140  A    between atoms: _348  and  _349
REMARK  141  A    between atoms: _348  and  _351
REMARK  142  A    between atoms: _351  and  _352
REMARK  143  A    between atoms: _352  and  _353
REMARK  144  A    between atoms: _353  and  _354
REMARK  145  A    between atoms: _354  and  _355
REMARK  146  A    between atoms: _359  and  _361
REMARK  147  A    between atoms: _361  and  _362
REMARK  148  A    between atoms: _361  and  _364
REMARK  149  A    between atoms: _364  and  _365
REMARK  150  A    between atoms: _367  and  _369
REMARK  151  A    between atoms: _369  and  _370
REMARK  152  A    between atoms: _372  and  _374
REMARK  153  A    between atoms: _374  and  _375
REMARK  154  A    between atoms: _374  and  _377
REMARK  155  A    between atoms: _377  and  _378
REMARK  156  A    between atoms: _381  and  _383
REMARK  157  A    between atoms: _383  and  _384
REMARK  158  A    between atoms: _383  and  _386
REMARK  159  A    between atoms: _386  and  _387
REMARK  160  A    between atoms: _390  and  _392
REMARK  161  A    between atoms: _392  and  _393
REMARK  162  A    between atoms: _396  and  _398
REMARK  163  A    between atoms: _398  and  _399
REMARK  164  A    between atoms: _401  and  _403
REMARK  165  A    between atoms: _403  and  _404
REMARK  166  A    between atoms: _403  and  _406
REMARK  167  A    between atoms: _406  and  _407
REMARK  168  A    between atoms: _413  and  _415
REMARK  169  A    between atoms: _415  and  _416
REMARK  170  A    between atoms: _415  and  _418
REMARK  171  A    between atoms: _418  and  _419
REMARK  172  A    between atoms: _422  and  _424
REMARK  173  A    between atoms: _424  and  _425
REMARK  174  A    between atoms: _424  and  _427
REMARK  175  A    between atoms: _427  and  _428
REMARK  176  A    between atoms: _433  and  _435
REMARK  177  A    between atoms: _435  and  _436
REMARK  178  A    between atoms: _435  and  _438
REMARK  179  A    between atoms: _438  and  _439
REMARK  180  A    between atoms: _442  and  _444
REMARK  181  A    between atoms: _444  and  _445
REMARK  182  A    between atoms: _444  and  _447
REMARK  183  A    between atoms: _447  and  _448
REMARK  184  A    between atoms: _453  and  _454
REMARK  185  A    between atoms: _456  and  _458
REMARK  186  A    between atoms: _458  and  _459
REMARK  187  A    between atoms: _458  and  _461
REMARK  188  A    between atoms: _461  and  _462
REMARK  189  A    between atoms: _465  and  _467
REMARK  190  A    between atoms: _467  and  _468
REMARK  191  A    between atoms: _467  and  _470
REMARK  192  A    between atoms: _470  and  _471
REMARK  193  A    between atoms: _471  and  _472
REMARK  194  A    between atoms: _475  and  _477
REMARK  195  A    between atoms: _477  and  _478
REMARK  196  A    between atoms: _477  and  _480
REMARK  197  A    between atoms: _480  and  _481
REMARK  198  A    between atoms: _484  and  _486
REMARK  199  A    between atoms: _486  and  _487
REMARK  200  A    between atoms: _489  and  _491
REMARK  201  A    between atoms: _491  and  _492
REMARK  202  A    between atoms: _494  and  _496
REMARK  203  A    between atoms: _496  and  _497
REMARK  204  A    between atoms: _496  and  _499
REMARK  205  A    between atoms: _499  and  _500
REMARK  206  A    between atoms: _500  and  _501
REMARK  207  A    between atoms: _506  and  _508
REMARK  208  A    between atoms: _508  and  _509
REMARK  209  A    between atoms: _512  and  _514
REMARK  210  A    between atoms: _514  and  _515
REMARK  211  A    between atoms: _514  and  _517
REMARK  212  A    between atoms: _517  and  _518
REMARK  213  A    between atoms: _521  and  _523
REMARK  214  A    between atoms: _523  and  _524
REMARK  215  A    between atoms: _523  and  _526
REMARK  216  A    between atoms: _526  and  _527
REMARK  217  A    between atoms: _527  and  _528
REMARK  218  A    between atoms: _533  and  _535
REMARK  219  A    between atoms: _535  and  _536
REMARK  220  A    between atoms: _535  and  _538
REMARK  221  A    between atoms: _538  and  _539
REMARK  222  A    between atoms: _542  and  _544
REMARK  223  A    between atoms: _544  and  _545
REMARK  224  A    between atoms: _544  and  _547
REMARK  225  A    between atoms: _547  and  _548
REMARK  226  A    between atoms: _548  and  _549
REMARK  227  A    between atoms: _549  and  _550
REMARK                            x       y       z     vdW  Elec       q    Type
REMARK                         _______ _______ _______ _____ _____    ______ ____
ROOT
ATOM      1  CA  LEU A   2      -7.935  -4.403  19.308  0.00  0.00    +0.149 C 
ENDROOT
BRANCH   1   4
ATOM      2  C   GLU A   1      -7.130  -6.666  19.054  0.00  0.00    +0.238 C 
ATOM      3  O   GLU A   1      -7.698  -7.105  20.067  0.00  0.00    -0.274 OA
ATOM      4  N   LEU A   2      -6.993  -5.367  18.789  0.00  0.00    -0.297 N 
ATOM      5  H   LEU A   2      -6.198  -5.044  18.201  0.00  0.00    +0.150 HD
BRANCH   2   6
ATOM      6  CA  GLU A   1      -6.548  -7.606  18.009  0.00  0.00    +0.145 C 
BRANCH   6   7
ATOM      7  N   GLU A   1      -6.241  -8.895  18.628  0.00  0.00    -0.238 NA
ATOM      8  H   GLU A   1      -6.992  -9.612  18.686  0.00  0.00    +0.142 HD
ENDBRANCH   6   7
BRANCH   6   9
ATOM      9  CB  GLU A   1      -7.619  -7.768  16.923  0.00  0.00    +0.038 C 
BRANCH   9  10
ATOM     10  CG  GLU A   1      -8.916  -8.424  17.449  0.00  0.00    +0.116 C 
BRANCH  10  11
ATOM     11  CD  GLU A   1     -10.150  -8.148  16.612  0.00  0.00    +0.365 C 
ATOM     12  OE2 GLU A   1     -11.165  -8.860  16.844  0.00  0.00    -0.246 OA
ATOM     13  OE1 GLU A   1     -10.100  -7.255  15.731  0.00  0.00    -0.246 OA
ENDBRANCH  10  11
ENDBRANCH   9  10
ENDBRANCH   6   9
ENDBRANCH   2   6
ENDBRANCH   1   4
BRANCH   1  14
ATOM     14  C   LEU A   2      -8.859  -4.022  18.170  0.00  0.00    +0.241 C 
ATOM     15  N   GLY A   3     -10.154  -3.914  18.467  0.00  0.00    -0.295 N 
ATOM     16  H   GLY A   3     -10.493  -4.247  19.392  0.00  0.00    +0.150 HD
ATOM     17  O   LEU A   2      -8.410  -3.847  17.036  0.00  0.00    -0.273 OA
BRANCH  15  18
ATOM     18  CA  GLY A   3     -11.098  -3.344  17.531  0.00  0.00    +0.176 C 
BRANCH  18  19
ATOM     19  C   GLY A   3     -10.959  -1.832  17.591  0.00  0.00    +0.243 C 
ATOM     20  O   GLY A   3     -10.802  -1.258  18.661  0.00  0.00    -0.273 OA
ATOM     21  N   GLY A   4     -10.979  -1.188  16.434  0.00  0.00    -0.296 N 
ATOM     22  H   GLY A   4     -11.117  -1.715  15.548  0.00  0.00    +0.150 HD
BRANCH  21  23
ATOM     23  CA  GLY A   4     -10.808   0.255  16.403  0.00  0.00    +0.163 C 
BRANCH  23  24
ATOM     24  C   GLY A   4     -12.046   1.055  16.023  0.00  0.00    +0.229 C 
ATOM     25  O   GLY A   4     -12.958   0.533  15.372  0.00  0.00    -0.286 OA
ENDBRANCH  23  24
ENDBRANCH  21  23
ENDBRANCH  18  19
ENDBRANCH  15  18
ENDBRANCH   1  14
BRANCH   1  26
ATOM     26  CB  LEU A   2      -7.219  -3.146  19.798  0.00  0.00    +0.029 C 
BRANCH  26  27
ATOM     27  CG  LEU A   2      -6.286  -3.358  20.980  0.00  0.00    +0.002 C 
ATOM     28  CD2 LEU A   2      -7.064  -3.861  22.216  0.00  0.00    +0.000 C 
ATOM     29  CD1 LEU A   2      -5.465  -2.105  21.305  0.00  0.00    +0.000 C 
ENDBRANCH  26  27
ENDBRANCH   1  26
TORSDOF 13
REMARK  Name = ../refined-set-2016/4r75/4r75_pocket.pdb
REMARK  227 active torsions:
REMARK  status: ('A' for Active; 'I' for Inactive)
REMARK    1  A    between atoms: _1  and  _3
REMARK    2  A    between atoms: _3  and  _4
REMARK    3  A    between atoms: _3  and  _6
REMARK    4  A    between atoms: _8  and  _10
REMARK    5  A    between atoms: _10  and  _11
REMARK    6  A    between atoms: _10  and  _13
REMARK    7  A    between atoms: _13  and  _14
REMARK    8  A    between atoms: _16  and  _18
REMARK    9  A    between atoms: _18  and  _19
REMARK   10  A    between atoms: _22  and  _24
REMARK   11  A    between atoms: _24  and  _25
REMARK   12  A    between atoms: _24  and  _27
REMARK   13  A    between atoms: _27  and  _28
REMARK   14  A    between atoms: _31  and  _33
REMARK   15  A    between atoms: _33  and  _34
REMARK   16  A    between atoms: _33  and  _36
REMARK   17  A    between atoms: _36  and  _37
REMARK   18  A    between atoms: _42  and  _44
REMARK   19  A    between atoms: _44  and  _45
REMARK   20  A    between atoms: _44  and  _47
REMARK   21  A    between atoms: _47  and  _48
REMARK   22  A    between atoms: _48  and  _49
REMARK   23  A    between atoms: _51  and  _53
REMARK   24  A    between atoms: _53  and  _54
REMARK   25  A    between atoms: _53  and  _56
REMARK   26  A    between atoms: _56  and  _57
REMARK   27  A    between atoms: _57  and  _58
REMARK   28  A    between atoms: _58  and  _59
REMARK   29  A    between atoms: _68  and  _70
REMARK   30  A    between atoms: _70  and  _71
REMARK   31  A    between atoms: _70  and  _73
REMARK   32  A    between atoms: _73  and  _74
REMARK   33  A    between atoms: _79  and  _81
REMARK   34  A    between atoms: _81  and  _82
REMARK   35  A    between atoms: _84  and  _86
REMARK   36  A    between atoms: _86  and  _87
REMARK   37  A    between atoms: _86  and  _89
REMARK   38  A    between atoms: _89  and  _90
REMARK   39  A    between atoms: _92  and  _94
REMARK   40  A    between atoms: _94  and  _95
REMARK   41  A    between atoms: _97  and  _99
REMARK   42  A    between atoms: _99  and  _100
REMARK   43  A    between atoms: _99  and  _102
REMARK   44  A    between atoms: _102  and  _103
REMARK   45  A    between atoms: _105  and  _107
REMARK   46  A    between atoms: _107  and  _108
REMARK   47  A    between atoms: _107  and  _110
REMARK   48  A    between atoms: _110  and  _111
REMARK   49  A    between atoms: _114  and  _116
REMARK   50  A    between atoms: _116  and  _117
REMARK   51  A    between atoms: _116  and  _119
REMARK   52  A    between atoms: _119  and  _120
REMARK   53  A    between atoms: _126  and  _128
REMARK   54  A    between atoms: _128  and  _129
REMARK   55  A    between atoms: _128  and  _131
REMARK   56  A    between atoms: _131  and  _132
REMARK   57  A    between atoms: _142  and  _144
REMARK   58  A    between atoms: _144  and  _145
REMARK   59  A    between atoms: _144  and  _147
REMARK   60  A    between atoms: _147  and  _148
REMARK   61  A    between atoms: _153  and  _154
REMARK   62  A    between atoms: _156  and  _158
REMARK   63  A    between atoms: _158  and  _159
REMARK   64  A    between atoms: _161  and  _163
REMARK   65  A    between atoms: _163  and  _164
REMARK   66  A    between atoms: _166  and  _168
REMARK   67  A    between atoms: _168  and  _169
REMARK   68  A    between atoms: _168  and  _171
REMARK   69  A    between atoms: _171  and  _172
REMARK   70  A    between atoms: _175  and  _177
REMARK   71  A    between atoms: _177  and  _178
REMARK   72  A    between atoms: _177  and  _180
REMARK   73  A    between atoms: _180  and  _181
REMARK   74  A    between atoms: _184  and  _186
REMARK   75  A    between atoms: _186  and  _187
REMARK   76  A    between atoms: _186  and  _189
REMARK   77  A    between atoms: _189  and  _190
REMARK   78  A    between atoms: _194  and  _195
REMARK   79  A    between atoms: _200  and  _202
REMARK   80  A    between atoms: _202  and  _203
REMARK   81  A    between atoms: _202  and  _205
REMARK   82  A    between atoms: _205  and  _206
REMARK   83  A    between atoms: _206  and  _207
REMARK   84  A    between atoms: _212  and  _214
REMARK   85  A    between atoms: _214  and  _215
REMARK   86  A    between atoms: _214  and  _217
REMARK   87  A    between atoms: _220  and  _222
REMARK   88  A    between atoms: _222  and  _223
REMARK   89  A    between atoms: _222  and  _225
REMARK   90  A    between atoms: _225  and  _226
REMARK   91  A    between atoms: _231  and  _232
REMARK   92  A    between atoms: _234  and  _236
REMARK   93  A    between atoms: _236  and  _237
REMARK   94  A    between atoms: _236  and  _239
REMARK   95  A    between atoms: _239  and  _240
REMARK   96  A    between atoms: _243  and  _245
REMARK   97  A    between atoms: _245  and  _246
REMARK   98  A    between atoms: _248  and  _250
REMARK   99  A    between atoms: _250  and  _251
REMARK  100  A    between atoms: _250  and  _253
REMARK  101  A    between atoms: _253  and  _254
REMARK  102  A    between atoms: _257  and  _259
REMARK  103  A    between atoms: _259  and  _260
REMARK  104  A    between atoms: _263  and  _265
REMARK  105  A    between atoms: _265  and  _266
REMARK  106  A    between atoms: _265  and  _268
REMARK  107  A    between atoms: _268  and  _269
REMARK  108  A    between atoms: _272  and  _274
REMARK  109  A    between atoms: _274  and  _275
REMARK  110  A    between atoms: _274  and  _277
REMARK  111  A    between atoms: _277  and  _278
REMARK  112  A    between atoms: _280  and  _282
REMARK  113  A    between atoms: _282  and  _283
REMARK  114  A    between atoms: _282  and  _285
REMARK  115  A    between atoms: _285  and  _286
REMARK  116  A    between atoms: _288  and  _290
REMARK  117  A    between atoms: _290  and  _291
REMARK  118  A    between atoms: _293  and  _295
REMARK  119  A    between atoms: _295  and  _296
REMARK  120  A    between atoms: _295  and  _298
REMARK  121  A    between atoms: _298  and  _299
REMARK  122  A    between atoms: _302  and  _304
REMARK  123  A    between atoms: _304  and  _305
REMARK  124  A    between atoms: _308  and  _310
REMARK  125  A    between atoms: _310  and  _311
REMARK  126  A    between atoms: _310  and  _313
REMARK  127  A    between atoms: _313  and  _314
REMARK  128  A    between atoms: _319  and  _320
REMARK  129  A    between atoms: _322  and  _324
REMARK  130  A    between atoms: _324  and  _325
REMARK  131  A    between atoms: _324  and  _327
REMARK  132  A    between atoms: _327  and  _328
REMARK  133  A    between atoms: _331  and  _333
REMARK  134  A    between atoms: _333  and  _334
REMARK  135  A    between atoms: _337  and  _339
REMARK  136  A    between atoms: _339  and  _340
REMARK  137  A    between atoms: _339  and  _342
REMARK  138  A    between atoms: _342  and  _343
REMARK  139  A    between atoms: _346  and  _348
REMARK  140  A    between atoms: _348  and  _349
REMARK  141  A    between atoms: _348  and  _351
REMARK  142  A    between atoms: _351  and  _352
REMARK  143  A    between atoms: _352  and  _353
REMARK  144  A    between atoms: _353  and  _354
REMARK  145  A    between atoms: _354  and  _355
REMARK  146  A    between atoms: _359  and  _361
REMARK  147  A    between atoms: _361  and  _362
REMARK  148  A    between atoms: _361  and  _364
REMARK  149  A    between atoms: _364  and  _365
REMARK  150  A    between atoms: _367  and  _369
REMARK  151  A    between atoms: _369  and  _370
REMARK  152  A    between atoms: _372  and  _374
REMARK  153  A    between atoms: _374  and  _375
REMARK  154  A    between atoms: _374  and  _377
REMARK  155  A    between atoms: _377  and  _378
REMARK  156  A    between atoms: _381  and  _383
REMARK  157  A    between atoms: _383  and  _384
REMARK  158  A    between atoms: _383  and  _386
REMARK  159  A    between atoms: _386  and  _387
REMARK  160  A    between atoms: _390  and  _392
REMARK  161  A    between atoms: _392  and  _393
REMARK  162  A    between atoms: _396  and  _398
REMARK  163  A    between atoms: _398  and  _399
REMARK  164  A    between atoms: _401  and  _403
REMARK  165  A    between atoms: _403  and  _404
REMARK  166  A    between atoms: _403  and  _406
REMARK  167  A    between atoms: _406  and  _407
REMARK  168  A    between atoms: _413  and  _415
REMARK  169  A    between atoms: _415  and  _416
REMARK  170  A    between atoms: _415  and  _418
REMARK  171  A    between atoms: _418  and  _419
REMARK  172  A    between atoms: _422  and  _424
REMARK  173  A    between atoms: _424  and  _425
REMARK  174  A    between atoms: _424  and  _427
REMARK  175  A    between atoms: _427  and  _428
REMARK  176  A    between atoms: _433  and  _435
REMARK  177  A    between atoms: _435  and  _436
REMARK  178  A    between atoms: _435  and  _438
REMARK  179  A    between atoms: _438  and  _439
REMARK  180  A    between atoms: _442  and  _444
REMARK  181  A    between atoms: _444  and  _445
REMARK  182  A    between atoms: _444  and  _447
REMARK  183  A    between atoms: _447  and  _448
REMARK  184  A    between atoms: _453  and  _454
REMARK  185  A    between atoms: _456  and  _458
REMARK  186  A    between atoms: _458  and  _459
REMARK  187  A    between atoms: _458  and  _461
REMARK  188  A    between atoms: _461  and  _462
REMARK  189  A    between atoms: _465  and  _467
REMARK  190  A    between atoms: _467  and  _468
REMARK  191  A    between atoms: _467  and  _470
REMARK  192  A    between atoms: _470  and  _471
REMARK  193  A    between atoms: _471  and  _472
REMARK  194  A    between atoms: _475  and  _477
REMARK  195  A    between atoms: _477  and  _478
REMARK  196  A    between atoms: _477  and  _480
REMARK  197  A    between atoms: _480  and  _481
REMARK  198  A    between atoms: _484  and  _486
REMARK  199  A    between atoms: _486  and  _487
REMARK  200  A    between atoms: _489  and  _491
REMARK  201  A    between atoms: _491  and  _492
REMARK  202  A    between atoms: _494  and  _496
REMARK  203  A    between atoms: _496  and  _497
REMARK  204  A    between atoms: _496  and  _499
REMARK  205  A    between atoms: _499  and  _500
REMARK  206  A    between atoms: _500  and  _501
REMARK  207  A    between atoms: _506  and  _508
REMARK  208  A    between atoms: _508  and  _509
REMARK  209  A    between atoms: _512  and  _514
REMARK  210  A    between atoms: _514  and  _515
REMARK  211  A    between atoms: _514  and  _517
REMARK  212  A    between atoms: _517  and  _518
REMARK  213  A    between atoms: _521  and  _523
REMARK  214  A    between atoms: _523  and  _524
REMARK  215  A    between atoms: _523  and  _526
REMARK  216  A    between atoms: _526  and  _527
REMARK  217  A    between atoms: _527  and  _528
REMARK  218  A    between atoms: _533  and  _535
REMARK  219  A    between atoms: _535  and  _536
REMARK  220  A    between atoms: _535  and  _538
REMARK  221  A    between atoms: _538  and  _539
REMARK  222  A    between atoms: _542  and  _544
REMARK  223  A    between atoms: _544  and  _545
REMARK  224  A    between atoms: _544  and  _547
REMARK  225  A    between atoms: _547  and  _548
REMARK  226  A    between atoms: _548  and  _549
REMARK  227  A    between atoms: _549  and  _550
REMARK                            x       y       z     vdW  Elec       q    Type
REMARK                         _______ _______ _______ _____ _____    ______ ____
ROOT
ATOM      1  CA  LEU A   3     -18.584 -11.660  22.087  0.00  0.00    +0.149 C 
ENDROOT
BRANCH   1   4
ATOM      2  C   ALA A   2     -19.998 -10.233  20.708  0.00  0.00    +0.241 C 
ATOM      3  O   ALA A   2     -20.288  -9.484  21.642  0.00  0.00    -0.273 OA
ATOM      4  N   LEU A   3     -19.095 -11.203  20.797  0.00  0.00    -0.297 N 
ATOM      5  H   LEU A   3     -18.743 -11.649  19.926  0.00  0.00    +0.150 HD
BRANCH   2   6
ATOM      6  CA  ALA A   2     -20.674 -10.081  19.366  0.00  0.00    +0.149 C 
ATOM      7  CB  ALA A   2     -20.363  -8.732  18.742  0.00  0.00    +0.031 C 
BRANCH   6   9
ATOM      8  C   GLN A   1     -22.875 -10.981  18.811  0.00  0.00    +0.238 C 
ATOM      9  N   ALA A   2     -22.111 -10.212  19.578  0.00  0.00    -0.297 N 
ATOM     10  H   ALA A   2     -22.553  -9.684  20.358  0.00  0.00    +0.150 HD
ATOM     11  O   GLN A   1     -22.429 -11.670  17.890  0.00  0.00    -0.274 OA
BRANCH   8  12
ATOM     12  CA  GLN A   1     -24.358 -10.990  19.158  0.00  0.00    +0.145 C 
BRANCH  12  13
ATOM     13  N   GLN A   1     -24.886  -9.649  19.398  0.00  0.00    -0.238 NA
ATOM     14  H   GLN A   1     -25.441  -9.479  20.261  0.00  0.00    +0.142 HD
ENDBRANCH  12  13
BRANCH  12  15
ATOM     15  CB  GLN A   1     -25.155 -11.699  18.059  0.00  0.00    +0.036 C 
BRANCH  15  16
ATOM     16  CG  GLN A   1     -26.637 -11.846  18.370  0.00  0.00    +0.087 C 
BRANCH  16  17
ATOM     17  CD  GLN A   1     -27.394 -12.542  17.253  0.00  0.00    +0.219 C 
ATOM     18  OE1 GLN A   1     -28.536 -12.198  16.954  0.00  0.00    -0.275 OA
ATOM     19  NE2 GLN A   1     -26.760 -13.532  16.636  0.00  0.00    -0.329 N 
ATOM     20 HE21 GLN A   1     -25.794 -13.789  16.922  0.00  0.00    +0.145 HD
ATOM     21 HE22 GLN A   1     -27.230 -14.050  15.866  0.00  0.00    +0.145 HD
ENDBRANCH  16  17
ENDBRANCH  15  16
ENDBRANCH  12  15
ENDBRANCH   8  12
ENDBRANCH   6   9
ENDBRANCH   2   6
ENDBRANCH   1   4
BRANCH   1  22
ATOM     22  C   LEU A   3     -17.129 -11.263  22.382  0.00  0.00    +0.241 C 
ATOM     23  O   LEU A   3     -16.441 -11.928  23.165  0.00  0.00    -0.273 OA
ATOM     24  N   GLN A   4     -16.672 -10.171  21.778  0.00  0.00    -0.297 N 
ATOM     25  H   GLN A   4     -17.258  -9.699  21.060  0.00  0.00    +0.150 HD
BRANCH  24  26
ATOM     26  CA  GLN A   4     -15.363  -9.627  22.108  0.00  0.00    +0.149 C 
BRANCH  26  27
ATOM     27  C   GLN A   4     -15.332  -9.164  23.540  0.00  0.00    +0.241 C 
ATOM     28  O   GLN A   4     -16.362  -8.896  24.157  0.00  0.00    -0.273 OA
ATOM     29  N   THR A   5     -14.125  -9.040  24.065  0.00  0.00    -0.296 N 
ATOM     30  H   THR A   5     -13.303  -9.370  23.520  0.00  0.00    +0.150 HD
BRANCH  29  31
ATOM     31  CA  THR A   5     -13.910  -8.460  25.374  0.00  0.00    +0.164 C 
BRANCH  31  32
ATOM     32  CB  THR A   5     -12.598  -8.974  25.935  0.00  0.00    +0.136 C 
ATOM     33  CG2 THR A   5     -12.352  -8.424  27.342  0.00  0.00    +0.034 C 
BRANCH  32  34
ATOM     34  OG1 THR A   5     -12.653 -10.410  25.943  0.00  0.00    -0.382 OA
ATOM     35  HG1 THR A   5     -12.783 -10.739  25.018  0.00  0.00    +0.210 HD
ENDBRANCH  32  34
ENDBRANCH  31  32
BRANCH  31  36
ATOM     36  C   THR A   5     -13.927  -6.939  25.258  0.00  0.00    +0.229 C 
ATOM     37  O   THR A   5     -13.346  -6.369  24.350  0.00  0.00    -0.286 OA
ENDBRANCH  31  36
ENDBRANCH  29  31
ENDBRANCH  26  27
BRANCH  26  38
ATOM     38  CB  GLN A   4     -14.970  -8.468  21.185  0.00  0.00    +0.039 C 
BRANCH  38  39
ATOM     39  CG  GLN A   4     -14.954  -8.821  19.700  0.00  0.00    +0.087 C 
BRANCH  39  40
ATOM     40  CD  GLN A   4     -16.237  -8.391  18.995  0.00  0.00    +0.219 C 
ATOM     41  OE1 GLN A   4     -17.279  -8.225  19.635  0.00  0.00    -0.275 OA
ATOM     42  NE2 GLN A   4     -16.167  -8.196  17.682  0.00  0.00    -0.329 N 
ATOM     43 HE21 GLN A   4     -15.268  -8.347  17.181  0.00  0.00    +0.145 HD
ATOM     44 HE22 GLN A   4     -17.011  -7.892  17.156  0.00  0.00    +0.145 HD
ENDBRANCH  39  40
ENDBRANCH  38  39
ENDBRANCH  26  38
ENDBRANCH  24  26
ENDBRANCH   1  22
BRANCH   1  45
ATOM     45  CB  LEU A   3     -18.779 -13.173  22.218  0.00  0.00    +0.029 C 
BRANCH  45  46
ATOM     46  CG  LEU A   3     -20.210 -13.660  21.979  0.00  0.00    +0.002 C 
ATOM     47  CD2 LEU A   3     -21.175 -13.025  22.976  0.00  0.00    +0.000 C 
ATOM     48  CD1 LEU A   3     -20.278 -15.183  22.047  0.00  0.00    +0.000 C 
ENDBRANCH  45  46
ENDBRANCH   1  45
TORSDOF 20
REMARK  Name = ../refined-set-2016/4r75/4r75_pocket.pdb
REMARK  227 active torsions:
REMARK  status: ('A' for Active; 'I' for Inactive)
REMARK    1  A    between atoms: _1  and  _3
REMARK    2  A    between atoms: _3  and  _4
REMARK    3  A    between atoms: _3  and  _6
REMARK    4  A    between atoms: _8  and  _10
REMARK    5  A    between atoms: _10  and  _11
REMARK    6  A    between atoms: _10  and  _13
REMARK    7  A    between atoms: _13  and  _14
REMARK    8  A    between atoms: _16  and  _18
REMARK    9  A    between atoms: _18  and  _19
REMARK   10  A    between atoms: _22  and  _24
REMARK   11  A    between atoms: _24  and  _25
REMARK   12  A    between atoms: _24  and  _27
REMARK   13  A    between atoms: _27  and  _28
REMARK   14  A    between atoms: _31  and  _33
REMARK   15  A    between atoms: _33  and  _34
REMARK   16  A    between atoms: _33  and  _36
REMARK   17  A    between atoms: _36  and  _37
REMARK   18  A    between atoms: _42  and  _44
REMARK   19  A    between atoms: _44  and  _45
REMARK   20  A    between atoms: _44  and  _47
REMARK   21  A    between atoms: _47  and  _48
REMARK   22  A    between atoms: _48  and  _49
REMARK   23  A    between atoms: _51  and  _53
REMARK   24  A    between atoms: _53  and  _54
REMARK   25  A    between atoms: _53  and  _56
REMARK   26  A    between atoms: _56  and  _57
REMARK   27  A    between atoms: _57  and  _58
REMARK   28  A    between atoms: _58  and  _59
REMARK   29  A    between atoms: _68  and  _70
REMARK   30  A    between atoms: _70  and  _71
REMARK   31  A    between atoms: _70  and  _73
REMARK   32  A    between atoms: _73  and  _74
REMARK   33  A    between atoms: _79  and  _81
REMARK   34  A    between atoms: _81  and  _82
REMARK   35  A    between atoms: _84  and  _86
REMARK   36  A    between atoms: _86  and  _87
REMARK   37  A    between atoms: _86  and  _89
REMARK   38  A    between atoms: _89  and  _90
REMARK   39  A    between atoms: _92  and  _94
REMARK   40  A    between atoms: _94  and  _95
REMARK   41  A    between atoms: _97  and  _99
REMARK   42  A    between atoms: _99  and  _100
REMARK   43  A    between atoms: _99  and  _102
REMARK   44  A    between atoms: _102  and  _103
REMARK   45  A    between atoms: _105  and  _107
REMARK   46  A    between atoms: _107  and  _108
REMARK   47  A    between atoms: _107  and  _110
REMARK   48  A    between atoms: _110  and  _111
REMARK   49  A    between atoms: _114  and  _116
REMARK   50  A    between atoms: _116  and  _117
REMARK   51  A    between atoms: _116  and  _119
REMARK   52  A    between atoms: _119  and  _120
REMARK   53  A    between atoms: _126  and  _128
REMARK   54  A    between atoms: _128  and  _129
REMARK   55  A    between atoms: _128  and  _131
REMARK   56  A    between atoms: _131  and  _132
REMARK   57  A    between atoms: _142  and  _144
REMARK   58  A    between atoms: _144  and  _145
REMARK   59  A    between atoms: _144  and  _147
REMARK   60  A    between atoms: _147  and  _148
REMARK   61  A    between atoms: _153  and  _154
REMARK   62  A    between atoms: _156  and  _158
REMARK   63  A    between atoms: _158  and  _159
REMARK   64  A    between atoms: _161  and  _163
REMARK   65  A    between atoms: _163  and  _164
REMARK   66  A    between atoms: _166  and  _168
REMARK   67  A    between atoms: _168  and  _169
REMARK   68  A    between atoms: _168  and  _171
REMARK   69  A    between atoms: _171  and  _172
REMARK   70  A    between atoms: _175  and  _177
REMARK   71  A    between atoms: _177  and  _178
REMARK   72  A    between atoms: _177  and  _180
REMARK   73  A    between atoms: _180  and  _181
REMARK   74  A    between atoms: _184  and  _186
REMARK   75  A    between atoms: _186  and  _187
REMARK   76  A    between atoms: _186  and  _189
REMARK   77  A    between atoms: _189  and  _190
REMARK   78  A    between atoms: _194  and  _195
REMARK   79  A    between atoms: _200  and  _202
REMARK   80  A    between atoms: _202  and  _203
REMARK   81  A    between atoms: _202  and  _205
REMARK   82  A    between atoms: _205  and  _206
REMARK   83  A    between atoms: _206  and  _207
REMARK   84  A    between atoms: _212  and  _214
REMARK   85  A    between atoms: _214  and  _215
REMARK   86  A    between atoms: _214  and  _217
REMARK   87  A    between atoms: _220  and  _222
REMARK   88  A    between atoms: _222  and  _223
REMARK   89  A    between atoms: _222  and  _225
REMARK   90  A    between atoms: _225  and  _226
REMARK   91  A    between atoms: _231  and  _232
REMARK   92  A    between atoms: _234  and  _236
REMARK   93  A    between atoms: _236  and  _237
REMARK   94  A    between atoms: _236  and  _239
REMARK   95  A    between atoms: _239  and  _240
REMARK   96  A    between atoms: _243  and  _245
REMARK   97  A    between atoms: _245  and  _246
REMARK   98  A    between atoms: _248  and  _250
REMARK   99  A    between atoms: _250  and  _251
REMARK  100  A    between atoms: _250  and  _253
REMARK  101  A    between atoms: _253  and  _254
REMARK  102  A    between atoms: _257  and  _259
REMARK  103  A    between atoms: _259  and  _260
REMARK  104  A    between atoms: _263  and  _265
REMARK  105  A    between atoms: _265  and  _266
REMARK  106  A    between atoms: _265  and  _268
REMARK  107  A    between atoms: _268  and  _269
REMARK  108  A    between atoms: _272  and  _274
REMARK  109  A    between atoms: _274  and  _275
REMARK  110  A    between atoms: _274  and  _277
REMARK  111  A    between atoms: _277  and  _278
REMARK  112  A    between atoms: _280  and  _282
REMARK  113  A    between atoms: _282  and  _283
REMARK  114  A    between atoms: _282  and  _285
REMARK  115  A    between atoms: _285  and  _286
REMARK  116  A    between atoms: _288  and  _290
REMARK  117  A    between atoms: _290  and  _291
REMARK  118  A    between atoms: _293  and  _295
REMARK  119  A    between atoms: _295  and  _296
REMARK  120  A    between atoms: _295  and  _298
REMARK  121  A    between atoms: _298  and  _299
REMARK  122  A    between atoms: _302  and  _304
REMARK  123  A    between atoms: _304  and  _305
REMARK  124  A    between atoms: _308  and  _310
REMARK  125  A    between atoms: _310  and  _311
REMARK  126  A    between atoms: _310  and  _313
REMARK  127  A    between atoms: _313  and  _314
REMARK  128  A    between atoms: _319  and  _320
REMARK  129  A    between atoms: _322  and  _324
REMARK  130  A    between atoms: _324  and  _325
REMARK  131  A    between atoms: _324  and  _327
REMARK  132  A    between atoms: _327  and  _328
REMARK  133  A    between atoms: _331  and  _333
REMARK  134  A    between atoms: _333  and  _334
REMARK  135  A    between atoms: _337  and  _339
REMARK  136  A    between atoms: _339  and  _340
REMARK  137  A    between atoms: _339  and  _342
REMARK  138  A    between atoms: _342  and  _343
REMARK  139  A    between atoms: _346  and  _348
REMARK  140  A    between atoms: _348  and  _349
REMARK  141  A    between atoms: _348  and  _351
REMARK  142  A    between atoms: _351  and  _352
REMARK  143  A    between atoms: _352  and  _353
REMARK  144  A    between atoms: _353  and  _354
REMARK  145  A    between atoms: _354  and  _355
REMARK  146  A    between atoms: _359  and  _361
REMARK  147  A    between atoms: _361  and  _362
REMARK  148  A    between atoms: _361  and  _364
REMARK  149  A    between atoms: _364  and  _365
REMARK  150  A    between atoms: _367  and  _369
REMARK  151  A    between atoms: _369  and  _370
REMARK  152  A    between atoms: _372  and  _374
REMARK  153  A    between atoms: _374  and  _375
REMARK  154  A    between atoms: _374  and  _377
REMARK  155  A    between atoms: _377  and  _378
REMARK  156  A    between atoms: _381  and  _383
REMARK  157  A    between atoms: _383  and  _384
REMARK  158  A    between atoms: _383  and  _386
REMARK  159  A    between atoms: _386  and  _387
REMARK  160  A    between atoms: _390  and  _392
REMARK  161  A    between atoms: _392  and  _393
REMARK  162  A    between atoms: _396  and  _398
REMARK  163  A    between atoms: _398  and  _399
REMARK  164  A    between atoms: _401  and  _403
REMARK  165  A    between atoms: _403  and  _404
REMARK  166  A    between atoms: _403  and  _406
REMARK  167  A    between atoms: _406  and  _407
REMARK  168  A    between atoms: _413  and  _415
REMARK  169  A    between atoms: _415  and  _416
REMARK  170  A    between atoms: _415  and  _418
REMARK  171  A    between atoms: _418  and  _419
REMARK  172  A    between atoms: _422  and  _424
REMARK  173  A    between atoms: _424  and  _425
REMARK  174  A    between atoms: _424  and  _427
REMARK  175  A    between atoms: _427  and  _428
REMARK  176  A    between atoms: _433  and  _435
REMARK  177  A    between atoms: _435  and  _436
REMARK  178  A    between atoms: _435  and  _438
REMARK  179  A    between atoms: _438  and  _439
REMARK  180  A    between atoms: _442  and  _444
REMARK  181  A    between atoms: _444  and  _445
REMARK  182  A    between atoms: _444  and  _447
REMARK  183  A    between atoms: _447  and  _448
REMARK  184  A    between atoms: _453  and  _454
REMARK  185  A    between atoms: _456  and  _458
REMARK  186  A    between atoms: _458  and  _459
REMARK  187  A    between atoms: _458  and  _461
REMARK  188  A    between atoms: _461  and  _462
REMARK  189  A    between atoms: _465  and  _467
REMARK  190  A    between atoms: _467  and  _468
REMARK  191  A    between atoms: _467  and  _470
REMARK  192  A    between atoms: _470  and  _471
REMARK  193  A    between atoms: _471  and  _472
REMARK  194  A    between atoms: _475  and  _477
REMARK  195  A    between atoms: _477  and  _478
REMARK  196  A    between atoms: _477  and  _480
REMARK  197  A    between atoms: _480  and  _481
REMARK  198  A    between atoms: _484  and  _486
REMARK  199  A    between atoms: _486  and  _487
REMARK  200  A    between atoms: _489  and  _491
REMARK  201  A    between atoms: _491  and  _492
REMARK  202  A    between atoms: _494  and  _496
REMARK  203  A    between atoms: _496  and  _497
REMARK  204  A    between atoms: _496  and  _499
REMARK  205  A    between atoms: _499  and  _500
REMARK  206  A    between atoms: _500  and  _501
REMARK  207  A    between atoms: _506  and  _508
REMARK  208  A    between atoms: _508  and  _509
REMARK  209  A    between atoms: _512  and  _514
REMARK  210  A    between atoms: _514  and  _515
REMARK  211  A    between atoms: _514  and  _517
REMARK  212  A    between atoms: _517  and  _518
REMARK  213  A    between atoms: _521  and  _523
REMARK  214  A    between atoms: _523  and  _524
REMARK  215  A    between atoms: _523  and  _526
REMARK  216  A    between atoms: _526  and  _527
REMARK  217  A    between atoms: _527  and  _528
REMARK  218  A    between atoms: _533  and  _535
REMARK  219  A    between atoms: _535  and  _536
REMARK  220  A    between atoms: _535  and  _538
REMARK  221  A    between atoms: _538  and  _539
REMARK  222  A    between atoms: _542  and  _544
REMARK  223  A    between atoms: _544  and  _545
REMARK  224  A    between atoms: _544  and  _547
REMARK  225  A    between atoms: _547  and  _548
REMARK  226  A    between atoms: _548  and  _549
REMARK  227  A    between atoms: _549  and  _550
REMARK                            x       y       z     vdW  Elec       q    Type
REMARK                         _______ _______ _______ _____ _____    ______ ____
ROOT
ATOM      1  NE  ARG A   1      -2.361  -4.751   6.859  0.00  0.00    -0.265 N 
ATOM      2  HE  ARG A   1      -2.365  -5.751   7.145  0.00  0.00    +0.259 HD
ATOM      3  CZ  ARG A   1      -3.305  -4.351   6.013  0.00  0.00    +0.342 C 
ATOM      4  NH2 ARG A   1      -3.394  -3.073   5.654  0.00  0.00    -0.292 N 
ATOM      5 HH21 ARG A   1      -2.722  -2.378   6.036  0.00  0.00    +0.255 HD
ATOM      6 HH22 ARG A   1      -4.136  -2.769   4.991  0.00  0.00    +0.255 HD
ATOM      7  NH1 ARG A   1      -4.178  -5.232   5.537  0.00  0.00    -0.292 N 
ATOM      8 HH11 ARG A   1      -4.121  -6.229   5.827  0.00  0.00    +0.255 HD
ATOM      9 HH12 ARG A   1      -4.919  -4.924   4.875  0.00  0.00    +0.255 HD
ENDROOT
BRANCH   1  10
ATOM     10  CD  ARG A   1      -1.317  -3.894   7.419  0.00  0.00    +0.174 C 
BRANCH  10  11
ATOM     11  CG  ARG A   1       0.033  -4.201   6.753  0.00  0.00    +0.045 C 
BRANCH  11  12
ATOM     12  CB  ARG A   1       1.181  -3.357   7.305  0.00  0.00    +0.029 C 
BRANCH  12  13
ATOM     13  CA  ARG A   1       2.539  -4.057   7.223  0.00  0.00    +0.133 C 
BRANCH  13  14
ATOM     14  N   ARG A   1       3.612  -3.205   7.726  0.00  0.00    -0.239 NA
ATOM     15  H   ARG A   1       3.423  -2.210   7.963  0.00  0.00    +0.142 HD
ENDBRANCH  13  14
BRANCH  13  16
ATOM     16  C   ARG A   1       2.835  -4.522   5.799  0.00  0.00    +0.224 C 
ATOM     17  O   ARG A   1       2.708  -5.708   5.486  0.00  0.00    -0.287 OA
ENDBRANCH  13  16
ENDBRANCH  12  13
ENDBRANCH  11  12
ENDBRANCH  10  11
ENDBRANCH   1  10
TORSDOF 6
REMARK  Name = ../refined-set-2016/4r75/4r75_pocket.pdb
REMARK  227 active torsions:
REMARK  status: ('A' for Active; 'I' for Inactive)
REMARK    1  A    between atoms: _1  and  _3
REMARK    2  A    between atoms: _3  and  _4
REMARK    3  A    between atoms: _3  and  _6
REMARK    4  A    between atoms: _8  and  _10
REMARK    5  A    between atoms: _10  and  _11
REMARK    6  A    between atoms: _10  and  _13
REMARK    7  A    between atoms: _13  and  _14
REMARK    8  A    between atoms: _16  and  _18
REMARK    9  A    between atoms: _18  and  _19
REMARK   10  A    between atoms: _22  and  _24
REMARK   11  A    between atoms: _24  and  _25
REMARK   12  A    between atoms: _24  and  _27
REMARK   13  A    between atoms: _27  and  _28
REMARK   14  A    between atoms: _31  and  _33
REMARK   15  A    between atoms: _33  and  _34
REMARK   16  A    between atoms: _33  and  _36
REMARK   17  A    between atoms: _36  and  _37
REMARK   18  A    between atoms: _42  and  _44
REMARK   19  A    between atoms: _44  and  _45
REMARK   20  A    between atoms: _44  and  _47
REMARK   21  A    between atoms: _47  and  _48
REMARK   22  A    between atoms: _48  and  _49
REMARK   23  A    between atoms: _51  and  _53
REMARK   24  A    between atoms: _53  and  _54
REMARK   25  A    between atoms: _53  and  _56
REMARK   26  A    between atoms: _56  and  _57
REMARK   27  A    between atoms: _57  and  _58
REMARK   28  A    between atoms: _58  and  _59
REMARK   29  A    between atoms: _68  and  _70
REMARK   30  A    between atoms: _70  and  _71
REMARK   31  A    between atoms: _70  and  _73
REMARK   32  A    between atoms: _73  and  _74
REMARK   33  A    between atoms: _79  and  _81
REMARK   34  A    between atoms: _81  and  _82
REMARK   35  A    between atoms: _84  and  _86
REMARK   36  A    between atoms: _86  and  _87
REMARK   37  A    between atoms: _86  and  _89
REMARK   38  A    between atoms: _89  and  _90
REMARK   39  A    between atoms: _92  and  _94
REMARK   40  A    between atoms: _94  and  _95
REMARK   41  A    between atoms: _97  and  _99
REMARK   42  A    between atoms: _99  and  _100
REMARK   43  A    between atoms: _99  and  _102
REMARK   44  A    between atoms: _102  and  _103
REMARK   45  A    between atoms: _105  and  _107
REMARK   46  A    between atoms: _107  and  _108
REMARK   47  A    between atoms: _107  and  _110
REMARK   48  A    between atoms: _110  and  _111
REMARK   49  A    between atoms: _114  and  _116
REMARK   50  A    between atoms: _116  and  _117
REMARK   51  A    between atoms: _116  and  _119
REMARK   52  A    between atoms: _119  and  _120
REMARK   53  A    between atoms: _126  and  _128
REMARK   54  A    between atoms: _128  and  _129
REMARK   55  A    between atoms: _128  and  _131
REMARK   56  A    between atoms: _131  and  _132
REMARK   57  A    between atoms: _142  and  _144
REMARK   58  A    between atoms: _144  and  _145
REMARK   59  A    between atoms: _144  and  _147
REMARK   60  A    between atoms: _147  and  _148
REMARK   61  A    between atoms: _153  and  _154
REMARK   62  A    between atoms: _156  and  _158
REMARK   63  A    between atoms: _158  and  _159
REMARK   64  A    between atoms: _161  and  _163
REMARK   65  A    between atoms: _163  and  _164
REMARK   66  A    between atoms: _166  and  _168
REMARK   67  A    between atoms: _168  and  _169
REMARK   68  A    between atoms: _168  and  _171
REMARK   69  A    between atoms: _171  and  _172
REMARK   70  A    between atoms: _175  and  _177
REMARK   71  A    between atoms: _177  and  _178
REMARK   72  A    between atoms: _177  and  _180
REMARK   73  A    between atoms: _180  and  _181
REMARK   74  A    between atoms: _184  and  _186
REMARK   75  A    between atoms: _186  and  _187
REMARK   76  A    between atoms: _186  and  _189
REMARK   77  A    between atoms: _189  and  _190
REMARK   78  A    between atoms: _194  and  _195
REMARK   79  A    between atoms: _200  and  _202
REMARK   80  A    between atoms: _202  and  _203
REMARK   81  A    between atoms: _202  and  _205
REMARK   82  A    between atoms: _205  and  _206
REMARK   83  A    between atoms: _206  and  _207
REMARK   84  A    between atoms: _212  and  _214
REMARK   85  A    between atoms: _214  and  _215
REMARK   86  A    between atoms: _214  and  _217
REMARK   87  A    between atoms: _220  and  _222
REMARK   88  A    between atoms: _222  and  _223
REMARK   89  A    between atoms: _222  and  _225
REMARK   90  A    between atoms: _225  and  _226
REMARK   91  A    between atoms: _231  and  _232
REMARK   92  A    between atoms: _234  and  _236
REMARK   93  A    between atoms: _236  and  _237
REMARK   94  A    between atoms: _236  and  _239
REMARK   95  A    between atoms: _239  and  _240
REMARK   96  A    between atoms: _243  and  _245
REMARK   97  A    between atoms: _245  and  _246
REMARK   98  A    between atoms: _248  and  _250
REMARK   99  A    between atoms: _250  and  _251
REMARK  100  A    between atoms: _250  and  _253
REMARK  101  A    between atoms: _253  and  _254
REMARK  102  A    between atoms: _257  and  _259
REMARK  103  A    between atoms: _259  and  _260
REMARK  104  A    between atoms: _263  and  _265
REMARK  105  A    between atoms: _265  and  _266
REMARK  106  A    between atoms: _265  and  _268
REMARK  107  A    between atoms: _268  and  _269
REMARK  108  A    between atoms: _272  and  _274
REMARK  109  A    between atoms: _274  and  _275
REMARK  110  A    between atoms: _274  and  _277
REMARK  111  A    between atoms: _277  and  _278
REMARK  112  A    between atoms: _280  and  _282
REMARK  113  A    between atoms: _282  and  _283
REMARK  114  A    between atoms: _282  and  _285
REMARK  115  A    between atoms: _285  and  _286
REMARK  116  A    between atoms: _288  and  _290
REMARK  117  A    between atoms: _290  and  _291
REMARK  118  A    between atoms: _293  and  _295
REMARK  119  A    between atoms: _295  and  _296
REMARK  120  A    between atoms: _295  and  _298
REMARK  121  A    between atoms: _298  and  _299
REMARK  122  A    between atoms: _302  and  _304
REMARK  123  A    between atoms: _304  and  _305
REMARK  124  A    between atoms: _308  and  _310
REMARK  125  A    between atoms: _310  and  _311
REMARK  126  A    between atoms: _310  and  _313
REMARK  127  A    between atoms: _313  and  _314
REMARK  128  A    between atoms: _319  and  _320
REMARK  129  A    between atoms: _322  and  _324
REMARK  130  A    between atoms: _324  and  _325
REMARK  131  A    between atoms: _324  and  _327
REMARK  132  A    between atoms: _327  and  _328
REMARK  133  A    between atoms: _331  and  _333
REMARK  134  A    between atoms: _333  and  _334
REMARK  135  A    between atoms: _337  and  _339
REMARK  136  A    between atoms: _339  and  _340
REMARK  137  A    between atoms: _339  and  _342
REMARK  138  A    between atoms: _342  and  _343
REMARK  139  A    between atoms: _346  and  _348
REMARK  140  A    between atoms: _348  and  _349
REMARK  141  A    between atoms: _348  and  _351
REMARK  142  A    between atoms: _351  and  _352
REMARK  143  A    between atoms: _352  and  _353
REMARK  144  A    between atoms: _353  and  _354
REMARK  145  A    between atoms: _354  and  _355
REMARK  146  A    between atoms: _359  and  _361
REMARK  147  A    between atoms: _361  and  _362
REMARK  148  A    between atoms: _361  and  _364
REMARK  149  A    between atoms: _364  and  _365
REMARK  150  A    between atoms: _367  and  _369
REMARK  151  A    between atoms: _369  and  _370
REMARK  152  A    between atoms: _372  and  _374
REMARK  153  A    between atoms: _374  and  _375
REMARK  154  A    between atoms: _374  and  _377
REMARK  155  A    between atoms: _377  and  _378
REMARK  156  A    between atoms: _381  and  _383
REMARK  157  A    between atoms: _383  and  _384
REMARK  158  A    between atoms: _383  and  _386
REMARK  159  A    between atoms: _386  and  _387
REMARK  160  A    between atoms: _390  and  _392
REMARK  161  A    between atoms: _392  and  _393
REMARK  162  A    between atoms: _396  and  _398
REMARK  163  A    between atoms: _398  and  _399
REMARK  164  A    between atoms: _401  and  _403
REMARK  165  A    between atoms: _403  and  _404
REMARK  166  A    between atoms: _403  and  _406
REMARK  167  A    between atoms: _406  and  _407
REMARK  168  A    between atoms: _413  and  _415
REMARK  169  A    between atoms: _415  and  _416
REMARK  170  A    between atoms: _415  and  _418
REMARK  171  A    between atoms: _418  and  _419
REMARK  172  A    between atoms: _422  and  _424
REMARK  173  A    between atoms: _424  and  _425
REMARK  174  A    between atoms: _424  and  _427
REMARK  175  A    between atoms: _427  and  _428
REMARK  176  A    between atoms: _433  and  _435
REMARK  177  A    between atoms: _435  and  _436
REMARK  178  A    between atoms: _435  and  _438
REMARK  179  A    between atoms: _438  and  _439
REMARK  180  A    between atoms: _442  and  _444
REMARK  181  A    between atoms: _444  and  _445
REMARK  182  A    between atoms: _444  and  _447
REMARK  183  A    between atoms: _447  and  _448
REMARK  184  A    between atoms: _453  and  _454
REMARK  185  A    between atoms: _456  and  _458
REMARK  186  A    between atoms: _458  and  _459
REMARK  187  A    between atoms: _458  and  _461
REMARK  188  A    between atoms: _461  and  _462
REMARK  189  A    between atoms: _465  and  _467
REMARK  190  A    between atoms: _467  and  _468
REMARK  191  A    between atoms: _467  and  _470
REMARK  192  A    between atoms: _470  and  _471
REMARK  193  A    between atoms: _471  and  _472
REMARK  194  A    between atoms: _475  and  _477
REMARK  195  A    between atoms: _477  and  _478
REMARK  196  A    between atoms: _477  and  _480
REMARK  197  A    between atoms: _480  and  _481
REMARK  198  A    between atoms: _484  and  _486
REMARK  199  A    between atoms: _486  and  _487
REMARK  200  A    between atoms: _489  and  _491
REMARK  201  A    between atoms: _491  and  _492
REMARK  202  A    between atoms: _494  and  _496
REMARK  203  A    between atoms: _496  and  _497
REMARK  204  A    between atoms: _496  and  _499
REMARK  205  A    between atoms: _499  and  _500
REMARK  206  A    between atoms: _500  and  _501
REMARK  207  A    between atoms: _506  and  _508
REMARK  208  A    between atoms: _508  and  _509
REMARK  209  A    between atoms: _512  and  _514
REMARK  210  A    between atoms: _514  and  _515
REMARK  211  A    between atoms: _514  and  _517
REMARK  212  A    between atoms: _517  and  _518
REMARK  213  A    between atoms: _521  and  _523
REMARK  214  A    between atoms: _523  and  _524
REMARK  215  A    between atoms: _523  and  _526
REMARK  216  A    between atoms: _526  and  _527
REMARK  217  A    between atoms: _527  and  _528
REMARK  218  A    between atoms: _533  and  _535
REMARK  219  A    between atoms: _535  and  _536
REMARK  220  A    between atoms: _535  and  _538
REMARK  221  A    between atoms: _538  and  _539
REMARK  222  A    between atoms: _542  and  _544
REMARK  223  A    between atoms: _544  and  _545
REMARK  224  A    between atoms: _544  and  _547
REMARK  225  A    between atoms: _547  and  _548
REMARK  226  A    between atoms: _548  and  _549
REMARK  227  A    between atoms: _549  and  _550
REMARK                            x       y       z     vdW  Elec       q    Type
REMARK                         _______ _______ _______ _____ _____    ______ ____
ROOT
ATOM      1  O   HOH     1     -12.236 -14.577  13.397  0.00  0.00    +0.000 OA
ENDROOT
TORSDOF 0
REMARK  Name = ../refined-set-2016/4r75/4r75_pocket.pdb
REMARK  227 active torsions:
REMARK  status: ('A' for Active; 'I' for Inactive)
REMARK    1  A    between atoms: _1  and  _3
REMARK    2  A    between atoms: _3  and  _4
REMARK    3  A    between atoms: _3  and  _6
REMARK    4  A    between atoms: _8  and  _10
REMARK    5  A    between atoms: _10  and  _11
REMARK    6  A    between atoms: _10  and  _13
REMARK    7  A    between atoms: _13  and  _14
REMARK    8  A    between atoms: _16  and  _18
REMARK    9  A    between atoms: _18  and  _19
REMARK   10  A    between atoms: _22  and  _24
REMARK   11  A    between atoms: _24  and  _25
REMARK   12  A    between atoms: _24  and  _27
REMARK   13  A    between atoms: _27  and  _28
REMARK   14  A    between atoms: _31  and  _33
REMARK   15  A    between atoms: _33  and  _34
REMARK   16  A    between atoms: _33  and  _36
REMARK   17  A    between atoms: _36  and  _37
REMARK   18  A    between atoms: _42  and  _44
REMARK   19  A    between atoms: _44  and  _45
REMARK   20  A    between atoms: _44  and  _47
REMARK   21  A    between atoms: _47  and  _48
REMARK   22  A    between atoms: _48  and  _49
REMARK   23  A    between atoms: _51  and  _53
REMARK   24  A    between atoms: _53  and  _54
REMARK   25  A    between atoms: _53  and  _56
REMARK   26  A    between atoms: _56  and  _57
REMARK   27  A    between atoms: _57  and  _58
REMARK   28  A    between atoms: _58  and  _59
REMARK   29  A    between atoms: _68  and  _70
REMARK   30  A    between atoms: _70  and  _71
REMARK   31  A    between atoms: _70  and  _73
REMARK   32  A    between atoms: _73  and  _74
REMARK   33  A    between atoms: _79  and  _81
REMARK   34  A    between atoms: _81  and  _82
REMARK   35  A    between atoms: _84  and  _86
REMARK   36  A    between atoms: _86  and  _87
REMARK   37  A    between atoms: _86  and  _89
REMARK   38  A    between atoms: _89  and  _90
REMARK   39  A    between atoms: _92  and  _94
REMARK   40  A    between atoms: _94  and  _95
REMARK   41  A    between atoms: _97  and  _99
REMARK   42  A    between atoms: _99  and  _100
REMARK   43  A    between atoms: _99  and  _102
REMARK   44  A    between atoms: _102  and  _103
REMARK   45  A    between atoms: _105  and  _107
REMARK   46  A    between atoms: _107  and  _108
REMARK   47  A    between atoms: _107  and  _110
REMARK   48  A    between atoms: _110  and  _111
REMARK   49  A    between atoms: _114  and  _116
REMARK   50  A    between atoms: _116  and  _117
REMARK   51  A    between atoms: _116  and  _119
REMARK   52  A    between atoms: _119  and  _120
REMARK   53  A    between atoms: _126  and  _128
REMARK   54  A    between atoms: _128  and  _129
REMARK   55  A    between atoms: _128  and  _131
REMARK   56  A    between atoms: _131  and  _132
REMARK   57  A    between atoms: _142  and  _144
REMARK   58  A    between atoms: _144  and  _145
REMARK   59  A    between atoms: _144  and  _147
REMARK   60  A    between atoms: _147  and  _148
REMARK   61  A    between atoms: _153  and  _154
REMARK   62  A    between atoms: _156  and  _158
REMARK   63  A    between atoms: _158  and  _159
REMARK   64  A    between atoms: _161  and  _163
REMARK   65  A    between atoms: _163  and  _164
REMARK   66  A    between atoms: _166  and  _168
REMARK   67  A    between atoms: _168  and  _169
REMARK   68  A    between atoms: _168  and  _171
REMARK   69  A    between atoms: _171  and  _172
REMARK   70  A    between atoms: _175  and  _177
REMARK   71  A    between atoms: _177  and  _178
REMARK   72  A    between atoms: _177  and  _180
REMARK   73  A    between atoms: _180  and  _181
REMARK   74  A    between atoms: _184  and  _186
REMARK   75  A    between atoms: _186  and  _187
REMARK   76  A    between atoms: _186  and  _189
REMARK   77  A    between atoms: _189  and  _190
REMARK   78  A    between atoms: _194  and  _195
REMARK   79  A    between atoms: _200  and  _202
REMARK   80  A    between atoms: _202  and  _203
REMARK   81  A    between atoms: _202  and  _205
REMARK   82  A    between atoms: _205  and  _206
REMARK   83  A    between atoms: _206  and  _207
REMARK   84  A    between atoms: _212  and  _214
REMARK   85  A    between atoms: _214  and  _215
REMARK   86  A    between atoms: _214  and  _217
REMARK   87  A    between atoms: _220  and  _222
REMARK   88  A    between atoms: _222  and  _223
REMARK   89  A    between atoms: _222  and  _225
REMARK   90  A    between atoms: _225  and  _226
REMARK   91  A    between atoms: _231  and  _232
REMARK   92  A    between atoms: _234  and  _236
REMARK   93  A    between atoms: _236  and  _237
REMARK   94  A    between atoms: _236  and  _239
REMARK   95  A    between atoms: _239  and  _240
REMARK   96  A    between atoms: _243  and  _245
REMARK   97  A    between atoms: _245  and  _246
REMARK   98  A    between atoms: _248  and  _250
REMARK   99  A    between atoms: _250  and  _251
REMARK  100  A    between atoms: _250  and  _253
REMARK  101  A    between atoms: _253  and  _254
REMARK  102  A    between atoms: _257  and  _259
REMARK  103  A    between atoms: _259  and  _260
REMARK  104  A    between atoms: _263  and  _265
REMARK  105  A    between atoms: _265  and  _266
REMARK  106  A    between atoms: _265  and  _268
REMARK  107  A    between atoms: _268  and  _269
REMARK  108  A    between atoms: _272  and  _274
REMARK  109  A    between atoms: _274  and  _275
REMARK  110  A    between atoms: _274  and  _277
REMARK  111  A    between atoms: _277  and  _278
REMARK  112  A    between atoms: _280  and  _282
REMARK  113  A    between atoms: _282  and  _283
REMARK  114  A    between atoms: _282  and  _285
REMARK  115  A    between atoms: _285  and  _286
REMARK  116  A    between atoms: _288  and  _290
REMARK  117  A    between atoms: _290  and  _291
REMARK  118  A    between atoms: _293  and  _295
REMARK  119  A    between atoms: _295  and  _296
REMARK  120  A    between atoms: _295  and  _298
REMARK  121  A    between atoms: _298  and  _299
REMARK  122  A    between atoms: _302  and  _304
REMARK  123  A    between atoms: _304  and  _305
REMARK  124  A    between atoms: _308  and  _310
REMARK  125  A    between atoms: _310  and  _311
REMARK  126  A    between atoms: _310  and  _313
REMARK  127  A    between atoms: _313  and  _314
REMARK  128  A    between atoms: _319  and  _320
REMARK  129  A    between atoms: _322  and  _324
REMARK  130  A    between atoms: _324  and  _325
REMARK  131  A    between atoms: _324  and  _327
REMARK  132  A    between atoms: _327  and  _328
REMARK  133  A    between atoms: _331  and  _333
REMARK  134  A    between atoms: _333  and  _334
REMARK  135  A    between atoms: _337  and  _339
REMARK  136  A    between atoms: _339  and  _340
REMARK  137  A    between atoms: _339  and  _342
REMARK  138  A    between atoms: _342  and  _343
REMARK  139  A    between atoms: _346  and  _348
REMARK  140  A    between atoms: _348  and  _349
REMARK  141  A    between atoms: _348  and  _351
REMARK  142  A    between atoms: _351  and  _352
REMARK  143  A    between atoms: _352  and  _353
REMARK  144  A    between atoms: _353  and  _354
REMARK  145  A    between atoms: _354  and  _355
REMARK  146  A    between atoms: _359  and  _361
REMARK  147  A    between atoms: _361  and  _362
REMARK  148  A    between atoms: _361  and  _364
REMARK  149  A    between atoms: _364  and  _365
REMARK  150  A    between atoms: _367  and  _369
REMARK  151  A    between atoms: _369  and  _370
REMARK  152  A    between atoms: _372  and  _374
REMARK  153  A    between atoms: _374  and  _375
REMARK  154  A    between atoms: _374  and  _377
REMARK  155  A    between atoms: _377  and  _378
REMARK  156  A    between atoms: _381  and  _383
REMARK  157  A    between atoms: _383  and  _384
REMARK  158  A    between atoms: _383  and  _386
REMARK  159  A    between atoms: _386  and  _387
REMARK  160  A    between atoms: _390  and  _392
REMARK  161  A    between atoms: _392  and  _393
REMARK  162  A    between atoms: _396  and  _398
REMARK  163  A    between atoms: _398  and  _399
REMARK  164  A    between atoms: _401  and  _403
REMARK  165  A    between atoms: _403  and  _404
REMARK  166  A    between atoms: _403  and  _406
REMARK  167  A    between atoms: _406  and  _407
REMARK  168  A    between atoms: _413  and  _415
REMARK  169  A    between atoms: _415  and  _416
REMARK  170  A    between atoms: _415  and  _418
REMARK  171  A    between atoms: _418  and  _419
REMARK  172  A    between atoms: _422  and  _424
REMARK  173  A    between atoms: _424  and  _425
REMARK  174  A    between atoms: _424  and  _427
REMARK  175  A    between atoms: _427  and  _428
REMARK  176  A    between atoms: _433  and  _435
REMARK  177  A    between atoms: _435  and  _436
REMARK  178  A    between atoms: _435  and  _438
REMARK  179  A    between atoms: _438  and  _439
REMARK  180  A    between atoms: _442  and  _444
REMARK  181  A    between atoms: _444  and  _445
REMARK  182  A    between atoms: _444  and  _447
REMARK  183  A    between atoms: _447  and  _448
REMARK  184  A    between atoms: _453  and  _454
REMARK  185  A    between atoms: _456  and  _458
REMARK  186  A    between atoms: _458  and  _459
REMARK  187  A    between atoms: _458  and  _461
REMARK  188  A    between atoms: _461  and  _462
REMARK  189  A    between atoms: _465  and  _467
REMARK  190  A    between atoms: _467  and  _468
REMARK  191  A    between atoms: _467  and  _470
REMARK  192  A    between atoms: _470  and  _471
REMARK  193  A    between atoms: _471  and  _472
REMARK  194  A    between atoms: _475  and  _477
REMARK  195  A    between atoms: _477  and  _478
REMARK  196  A    between atoms: _477  and  _480
REMARK  197  A    between atoms: _480  and  _481
REMARK  198  A    between atoms: _484  and  _486
REMARK  199  A    between atoms: _486  and  _487
REMARK  200  A    between atoms: _489  and  _491
REMARK  201  A    between atoms: _491  and  _492
REMARK  202  A    between atoms: _494  and  _496
REMARK  203  A    between atoms: _496  and  _497
REMARK  204  A    between atoms: _496  and  _499
REMARK  205  A    between atoms: _499  and  _500
REMARK  206  A    between atoms: _500  and  _501
REMARK  207  A    between atoms: _506  and  _508
REMARK  208  A    between atoms: _508  and  _509
REMARK  209  A    between atoms: _512  and  _514
REMARK  210  A    between atoms: _514  and  _515
REMARK  211  A    between atoms: _514  and  _517
REMARK  212  A    between atoms: _517  and  _518
REMARK  213  A    between atoms: _521  and  _523
REMARK  214  A    between atoms: _523  and  _524
REMARK  215  A    between atoms: _523  and  _526
REMARK  216  A    between atoms: _526  and  _527
REMARK  217  A    between atoms: _527  and  _528
REMARK  218  A    between atoms: _533  and  _535
REMARK  219  A    between atoms: _535  and  _536
REMARK  220  A    between atoms: _535  and  _538
REMARK  221  A    between atoms: _538  and  _539
REMARK  222  A    between atoms: _542  and  _544
REMARK  223  A    between atoms: _544  and  _545
REMARK  224  A    between atoms: _544  and  _547
REMARK  225  A    between atoms: _547  and  _548
REMARK  226  A    between atoms: _548  and  _549
REMARK  227  A    between atoms: _549  and  _550
REMARK                            x       y       z     vdW  Elec       q    Type
REMARK                         _______ _______ _______ _____ _____    ______ ____
ROOT
ATOM      1  O   HOH     1     -11.992 -12.309  11.804  0.00  0.00    +0.000 OA
ENDROOT
TORSDOF 0
REMARK  Name = ../refined-set-2016/4r75/4r75_pocket.pdb
REMARK  227 active torsions:
REMARK  status: ('A' for Active; 'I' for Inactive)
REMARK    1  A    between atoms: _1  and  _3
REMARK    2  A    between atoms: _3  and  _4
REMARK    3  A    between atoms: _3  and  _6
REMARK    4  A    between atoms: _8  and  _10
REMARK    5  A    between atoms: _10  and  _11
REMARK    6  A    between atoms: _10  and  _13
REMARK    7  A    between atoms: _13  and  _14
REMARK    8  A    between atoms: _16  and  _18
REMARK    9  A    between atoms: _18  and  _19
REMARK   10  A    between atoms: _22  and  _24
REMARK   11  A    between atoms: _24  and  _25
REMARK   12  A    between atoms: _24  and  _27
REMARK   13  A    between atoms: _27  and  _28
REMARK   14  A    between atoms: _31  and  _33
REMARK   15  A    between atoms: _33  and  _34
REMARK   16  A    between atoms: _33  and  _36
REMARK   17  A    between atoms: _36  and  _37
REMARK   18  A    between atoms: _42  and  _44
REMARK   19  A    between atoms: _44  and  _45
REMARK   20  A    between atoms: _44  and  _47
REMARK   21  A    between atoms: _47  and  _48
REMARK   22  A    between atoms: _48  and  _49
REMARK   23  A    between atoms: _51  and  _53
REMARK   24  A    between atoms: _53  and  _54
REMARK   25  A    between atoms: _53  and  _56
REMARK   26  A    between atoms: _56  and  _57
REMARK   27  A    between atoms: _57  and  _58
REMARK   28  A    between atoms: _58  and  _59
REMARK   29  A    between atoms: _68  and  _70
REMARK   30  A    between atoms: _70  and  _71
REMARK   31  A    between atoms: _70  and  _73
REMARK   32  A    between atoms: _73  and  _74
REMARK   33  A    between atoms: _79  and  _81
REMARK   34  A    between atoms: _81  and  _82
REMARK   35  A    between atoms: _84  and  _86
REMARK   36  A    between atoms: _86  and  _87
REMARK   37  A    between atoms: _86  and  _89
REMARK   38  A    between atoms: _89  and  _90
REMARK   39  A    between atoms: _92  and  _94
REMARK   40  A    between atoms: _94  and  _95
REMARK   41  A    between atoms: _97  and  _99
REMARK   42  A    between atoms: _99  and  _100
REMARK   43  A    between atoms: _99  and  _102
REMARK   44  A    between atoms: _102  and  _103
REMARK   45  A    between atoms: _105  and  _107
REMARK   46  A    between atoms: _107  and  _108
REMARK   47  A    between atoms: _107  and  _110
REMARK   48  A    between atoms: _110  and  _111
REMARK   49  A    between atoms: _114  and  _116
REMARK   50  A    between atoms: _116  and  _117
REMARK   51  A    between atoms: _116  and  _119
REMARK   52  A    between atoms: _119  and  _120
REMARK   53  A    between atoms: _126  and  _128
REMARK   54  A    between atoms: _128  and  _129
REMARK   55  A    between atoms: _128  and  _131
REMARK   56  A    between atoms: _131  and  _132
REMARK   57  A    between atoms: _142  and  _144
REMARK   58  A    between atoms: _144  and  _145
REMARK   59  A    between atoms: _144  and  _147
REMARK   60  A    between atoms: _147  and  _148
REMARK   61  A    between atoms: _153  and  _154
REMARK   62  A    between atoms: _156  and  _158
REMARK   63  A    between atoms: _158  and  _159
REMARK   64  A    between atoms: _161  and  _163
REMARK   65  A    between atoms: _163  and  _164
REMARK   66  A    between atoms: _166  and  _168
REMARK   67  A    between atoms: _168  and  _169
REMARK   68  A    between atoms: _168  and  _171
REMARK   69  A    between atoms: _171  and  _172
REMARK   70  A    between atoms: _175  and  _177
REMARK   71  A    between atoms: _177  and  _178
REMARK   72  A    between atoms: _177  and  _180
REMARK   73  A    between atoms: _180  and  _181
REMARK   74  A    between atoms: _184  and  _186
REMARK   75  A    between atoms: _186  and  _187
REMARK   76  A    between atoms: _186  and  _189
REMARK   77  A    between atoms: _189  and  _190
REMARK   78  A    between atoms: _194  and  _195
REMARK   79  A    between atoms: _200  and  _202
REMARK   80  A    between atoms: _202  and  _203
REMARK   81  A    between atoms: _202  and  _205
REMARK   82  A    between atoms: _205  and  _206
REMARK   83  A    between atoms: _206  and  _207
REMARK   84  A    between atoms: _212  and  _214
REMARK   85  A    between atoms: _214  and  _215
REMARK   86  A    between atoms: _214  and  _217
REMARK   87  A    between atoms: _220  and  _222
REMARK   88  A    between atoms: _222  and  _223
REMARK   89  A    between atoms: _222  and  _225
REMARK   90  A    between atoms: _225  and  _226
REMARK   91  A    between atoms: _231  and  _232
REMARK   92  A    between atoms: _234  and  _236
REMARK   93  A    between atoms: _236  and  _237
REMARK   94  A    between atoms: _236  and  _239
REMARK   95  A    between atoms: _239  and  _240
REMARK   96  A    between atoms: _243  and  _245
REMARK   97  A    between atoms: _245  and  _246
REMARK   98  A    between atoms: _248  and  _250
REMARK   99  A    between atoms: _250  and  _251
REMARK  100  A    between atoms: _250  and  _253
REMARK  101  A    between atoms: _253  and  _254
REMARK  102  A    between atoms: _257  and  _259
REMARK  103  A    between atoms: _259  and  _260
REMARK  104  A    between atoms: _263  and  _265
REMARK  105  A    between atoms: _265  and  _266
REMARK  106  A    between atoms: _265  and  _268
REMARK  107  A    between atoms: _268  and  _269
REMARK  108  A    between atoms: _272  and  _274
REMARK  109  A    between atoms: _274  and  _275
REMARK  110  A    between atoms: _274  and  _277
REMARK  111  A    between atoms: _277  and  _278
REMARK  112  A    between atoms: _280  and  _282
REMARK  113  A    between atoms: _282  and  _283
REMARK  114  A    between atoms: _282  and  _285
REMARK  115  A    between atoms: _285  and  _286
REMARK  116  A    between atoms: _288  and  _290
REMARK  117  A    between atoms: _290  and  _291
REMARK  118  A    between atoms: _293  and  _295
REMARK  119  A    between atoms: _295  and  _296
REMARK  120  A    between atoms: _295  and  _298
REMARK  121  A    between atoms: _298  and  _299
REMARK  122  A    between atoms: _302  and  _304
REMARK  123  A    between atoms: _304  and  _305
REMARK  124  A    between atoms: _308  and  _310
REMARK  125  A    between atoms: _310  and  _311
REMARK  126  A    between atoms: _310  and  _313
REMARK  127  A    between atoms: _313  and  _314
REMARK  128  A    between atoms: _319  and  _320
REMARK  129  A    between atoms: _322  and  _324
REMARK  130  A    between atoms: _324  and  _325
REMARK  131  A    between atoms: _324  and  _327
REMARK  132  A    between atoms: _327  and  _328
REMARK  133  A    between atoms: _331  and  _333
REMARK  134  A    between atoms: _333  and  _334
REMARK  135  A    between atoms: _337  and  _339
REMARK  136  A    between atoms: _339  and  _340
REMARK  137  A    between atoms: _339  and  _342
REMARK  138  A    between atoms: _342  and  _343
REMARK  139  A    between atoms: _346  and  _348
REMARK  140  A    between atoms: _348  and  _349
REMARK  141  A    between atoms: _348  and  _351
REMARK  142  A    between atoms: _351  and  _352
REMARK  143  A    between atoms: _352  and  _353
REMARK  144  A    between atoms: _353  and  _354
REMARK  145  A    between atoms: _354  and  _355
REMARK  146  A    between atoms: _359  and  _361
REMARK  147  A    between atoms: _361  and  _362
REMARK  148  A    between atoms: _361  and  _364
REMARK  149  A    between atoms: _364  and  _365
REMARK  150  A    between atoms: _367  and  _369
REMARK  151  A    between atoms: _369  and  _370
REMARK  152  A    between atoms: _372  and  _374
REMARK  153  A    between atoms: _374  and  _375
REMARK  154  A    between atoms: _374  and  _377
REMARK  155  A    between atoms: _377  and  _378
REMARK  156  A    between atoms: _381  and  _383
REMARK  157  A    between atoms: _383  and  _384
REMARK  158  A    between atoms: _383  and  _386
REMARK  159  A    between atoms: _386  and  _387
REMARK  160  A    between atoms: _390  and  _392
REMARK  161  A    between atoms: _392  and  _393
REMARK  162  A    between atoms: _396  and  _398
REMARK  163  A    between atoms: _398  and  _399
REMARK  164  A    between atoms: _401  and  _403
REMARK  165  A    between atoms: _403  and  _404
REMARK  166  A    between atoms: _403  and  _406
REMARK  167  A    between atoms: _406  and  _407
REMARK  168  A    between atoms: _413  and  _415
REMARK  169  A    between atoms: _415  and  _416
REMARK  170  A    between atoms: _415  and  _418
REMARK  171  A    between atoms: _418  and  _419
REMARK  172  A    between atoms: _422  and  _424
REMARK  173  A    between atoms: _424  and  _425
REMARK  174  A    between atoms: _424  and  _427
REMARK  175  A    between atoms: _427  and  _428
REMARK  176  A    between atoms: _433  and  _435
REMARK  177  A    between atoms: _435  and  _436
REMARK  178  A    between atoms: _435  and  _438
REMARK  179  A    between atoms: _438  and  _439
REMARK  180  A    between atoms: _442  and  _444
REMARK  181  A    between atoms: _444  and  _445
REMARK  182  A    between atoms: _444  and  _447
REMARK  183  A    between atoms: _447  and  _448
REMARK  184  A    between atoms: _453  and  _454
REMARK  185  A    between atoms: _456  and  _458
REMARK  186  A    between atoms: _458  and  _459
REMARK  187  A    between atoms: _458  and  _461
REMARK  188  A    between atoms: _461  and  _462
REMARK  189  A    between atoms: _465  and  _467
REMARK  190  A    between atoms: _467  and  _468
REMARK  191  A    between atoms: _467  and  _470
REMARK  192  A    between atoms: _470  and  _471
REMARK  193  A    between atoms: _471  and  _472
REMARK  194  A    between atoms: _475  and  _477
REMARK  195  A    between atoms: _477  and  _478
REMARK  196  A    between atoms: _477  and  _480
REMARK  197  A    between atoms: _480  and  _481
REMARK  198  A    between atoms: _484  and  _486
REMARK  199  A    between atoms: _486  and  _487
REMARK  200  A    between atoms: _489  and  _491
REMARK  201  A    between atoms: _491  and  _492
REMARK  202  A    between atoms: _494  and  _496
REMARK  203  A    between atoms: _496  and  _497
REMARK  204  A    between atoms: _496  and  _499
REMARK  205  A    between atoms: _499  and  _500
REMARK  206  A    between atoms: _500  and  _501
REMARK  207  A    between atoms: _506  and  _508
REMARK  208  A    between atoms: _508  and  _509
REMARK  209  A    between atoms: _512  and  _514
REMARK  210  A    between atoms: _514  and  _515
REMARK  211  A    between atoms: _514  and  _517
REMARK  212  A    between atoms: _517  and  _518
REMARK  213  A    between atoms: _521  and  _523
REMARK  214  A    between atoms: _523  and  _524
REMARK  215  A    between atoms: _523  and  _526
REMARK  216  A    between atoms: _526  and  _527
REMARK  217  A    between atoms: _527  and  _528
REMARK  218  A    between atoms: _533  and  _535
REMARK  219  A    between atoms: _535  and  _536
REMARK  220  A    between atoms: _535  and  _538
REMARK  221  A    between atoms: _538  and  _539
REMARK  222  A    between atoms: _542  and  _544
REMARK  223  A    between atoms: _544  and  _545
REMARK  224  A    between atoms: _544  and  _547
REMARK  225  A    between atoms: _547  and  _548
REMARK  226  A    between atoms: _548  and  _549
REMARK  227  A    between atoms: _549  and  _550
REMARK                            x       y       z     vdW  Elec       q    Type
REMARK                         _______ _______ _______ _____ _____    ______ ____
ROOT
ATOM      1  O   HOH     1     -12.020 -12.920  21.543  0.00  0.00    +0.000 OA
ENDROOT
TORSDOF 0
REMARK  Name = ../refined-set-2016/4r75/4r75_pocket.pdb
REMARK  227 active torsions:
REMARK  status: ('A' for Active; 'I' for Inactive)
REMARK    1  A    between atoms: _1  and  _3
REMARK    2  A    between atoms: _3  and  _4
REMARK    3  A    between atoms: _3  and  _6
REMARK    4  A    between atoms: _8  and  _10
REMARK    5  A    between atoms: _10  and  _11
REMARK    6  A    between atoms: _10  and  _13
REMARK    7  A    between atoms: _13  and  _14
REMARK    8  A    between atoms: _16  and  _18
REMARK    9  A    between atoms: _18  and  _19
REMARK   10  A    between atoms: _22  and  _24
REMARK   11  A    between atoms: _24  and  _25
REMARK   12  A    between atoms: _24  and  _27
REMARK   13  A    between atoms: _27  and  _28
REMARK   14  A    between atoms: _31  and  _33
REMARK   15  A    between atoms: _33  and  _34
REMARK   16  A    between atoms: _33  and  _36
REMARK   17  A    between atoms: _36  and  _37
REMARK   18  A    between atoms: _42  and  _44
REMARK   19  A    between atoms: _44  and  _45
REMARK   20  A    between atoms: _44  and  _47
REMARK   21  A    between atoms: _47  and  _48
REMARK   22  A    between atoms: _48  and  _49
REMARK   23  A    between atoms: _51  and  _53
REMARK   24  A    between atoms: _53  and  _54
REMARK   25  A    between atoms: _53  and  _56
REMARK   26  A    between atoms: _56  and  _57
REMARK   27  A    between atoms: _57  and  _58
REMARK   28  A    between atoms: _58  and  _59
REMARK   29  A    between atoms: _68  and  _70
REMARK   30  A    between atoms: _70  and  _71
REMARK   31  A    between atoms: _70  and  _73
REMARK   32  A    between atoms: _73  and  _74
REMARK   33  A    between atoms: _79  and  _81
REMARK   34  A    between atoms: _81  and  _82
REMARK   35  A    between atoms: _84  and  _86
REMARK   36  A    between atoms: _86  and  _87
REMARK   37  A    between atoms: _86  and  _89
REMARK   38  A    between atoms: _89  and  _90
REMARK   39  A    between atoms: _92  and  _94
REMARK   40  A    between atoms: _94  and  _95
REMARK   41  A    between atoms: _97  and  _99
REMARK   42  A    between atoms: _99  and  _100
REMARK   43  A    between atoms: _99  and  _102
REMARK   44  A    between atoms: _102  and  _103
REMARK   45  A    between atoms: _105  and  _107
REMARK   46  A    between atoms: _107  and  _108
REMARK   47  A    between atoms: _107  and  _110
REMARK   48  A    between atoms: _110  and  _111
REMARK   49  A    between atoms: _114  and  _116
REMARK   50  A    between atoms: _116  and  _117
REMARK   51  A    between atoms: _116  and  _119
REMARK   52  A    between atoms: _119  and  _120
REMARK   53  A    between atoms: _126  and  _128
REMARK   54  A    between atoms: _128  and  _129
REMARK   55  A    between atoms: _128  and  _131
REMARK   56  A    between atoms: _131  and  _132
REMARK   57  A    between atoms: _142  and  _144
REMARK   58  A    between atoms: _144  and  _145
REMARK   59  A    between atoms: _144  and  _147
REMARK   60  A    between atoms: _147  and  _148
REMARK   61  A    between atoms: _153  and  _154
REMARK   62  A    between atoms: _156  and  _158
REMARK   63  A    between atoms: _158  and  _159
REMARK   64  A    between atoms: _161  and  _163
REMARK   65  A    between atoms: _163  and  _164
REMARK   66  A    between atoms: _166  and  _168
REMARK   67  A    between atoms: _168  and  _169
REMARK   68  A    between atoms: _168  and  _171
REMARK   69  A    between atoms: _171  and  _172
REMARK   70  A    between atoms: _175  and  _177
REMARK   71  A    between atoms: _177  and  _178
REMARK   72  A    between atoms: _177  and  _180
REMARK   73  A    between atoms: _180  and  _181
REMARK   74  A    between atoms: _184  and  _186
REMARK   75  A    between atoms: _186  and  _187
REMARK   76  A    between atoms: _186  and  _189
REMARK   77  A    between atoms: _189  and  _190
REMARK   78  A    between atoms: _194  and  _195
REMARK   79  A    between atoms: _200  and  _202
REMARK   80  A    between atoms: _202  and  _203
REMARK   81  A    between atoms: _202  and  _205
REMARK   82  A    between atoms: _205  and  _206
REMARK   83  A    between atoms: _206  and  _207
REMARK   84  A    between atoms: _212  and  _214
REMARK   85  A    between atoms: _214  and  _215
REMARK   86  A    between atoms: _214  and  _217
REMARK   87  A    between atoms: _220  and  _222
REMARK   88  A    between atoms: _222  and  _223
REMARK   89  A    between atoms: _222  and  _225
REMARK   90  A    between atoms: _225  and  _226
REMARK   91  A    between atoms: _231  and  _232
REMARK   92  A    between atoms: _234  and  _236
REMARK   93  A    between atoms: _236  and  _237
REMARK   94  A    between atoms: _236  and  _239
REMARK   95  A    between atoms: _239  and  _240
REMARK   96  A    between atoms: _243  and  _245
REMARK   97  A    between atoms: _245  and  _246
REMARK   98  A    between atoms: _248  and  _250
REMARK   99  A    between atoms: _250  and  _251
REMARK  100  A    between atoms: _250  and  _253
REMARK  101  A    between atoms: _253  and  _254
REMARK  102  A    between atoms: _257  and  _259
REMARK  103  A    between atoms: _259  and  _260
REMARK  104  A    between atoms: _263  and  _265
REMARK  105  A    between atoms: _265  and  _266
REMARK  106  A    between atoms: _265  and  _268
REMARK  107  A    between atoms: _268  and  _269
REMARK  108  A    between atoms: _272  and  _274
REMARK  109  A    between atoms: _274  and  _275
REMARK  110  A    between atoms: _274  and  _277
REMARK  111  A    between atoms: _277  and  _278
REMARK  112  A    between atoms: _280  and  _282
REMARK  113  A    between atoms: _282  and  _283
REMARK  114  A    between atoms: _282  and  _285
REMARK  115  A    between atoms: _285  and  _286
REMARK  116  A    between atoms: _288  and  _290
REMARK  117  A    between atoms: _290  and  _291
REMARK  118  A    between atoms: _293  and  _295
REMARK  119  A    between atoms: _295  and  _296
REMARK  120  A    between atoms: _295  and  _298
REMARK  121  A    between atoms: _298  and  _299
REMARK  122  A    between atoms: _302  and  _304
REMARK  123  A    between atoms: _304  and  _305
REMARK  124  A    between atoms: _308  and  _310
REMARK  125  A    between atoms: _310  and  _311
REMARK  126  A    between atoms: _310  and  _313
REMARK  127  A    between atoms: _313  and  _314
REMARK  128  A    between atoms: _319  and  _320
REMARK  129  A    between atoms: _322  and  _324
REMARK  130  A    between atoms: _324  and  _325
REMARK  131  A    between atoms: _324  and  _327
REMARK  132  A    between atoms: _327  and  _328
REMARK  133  A    between atoms: _331  and  _333
REMARK  134  A    between atoms: _333  and  _334
REMARK  135  A    between atoms: _337  and  _339
REMARK  136  A    between atoms: _339  and  _340
REMARK  137  A    between atoms: _339  and  _342
REMARK  138  A    between atoms: _342  and  _343
REMARK  139  A    between atoms: _346  and  _348
REMARK  140  A    between atoms: _348  and  _349
REMARK  141  A    between atoms: _348  and  _351
REMARK  142  A    between atoms: _351  and  _352
REMARK  143  A    between atoms: _352  and  _353
REMARK  144  A    between atoms: _353  and  _354
REMARK  145  A    between atoms: _354  and  _355
REMARK  146  A    between atoms: _359  and  _361
REMARK  147  A    between atoms: _361  and  _362
REMARK  148  A    between atoms: _361  and  _364
REMARK  149  A    between atoms: _364  and  _365
REMARK  150  A    between atoms: _367  and  _369
REMARK  151  A    between atoms: _369  and  _370
REMARK  152  A    between atoms: _372  and  _374
REMARK  153  A    between atoms: _374  and  _375
REMARK  154  A    between atoms: _374  and  _377
REMARK  155  A    between atoms: _377  and  _378
REMARK  156  A    between atoms: _381  and  _383
REMARK  157  A    between atoms: _383  and  _384
REMARK  158  A    between atoms: _383  and  _386
REMARK  159  A    between atoms: _386  and  _387
REMARK  160  A    between atoms: _390  and  _392
REMARK  161  A    between atoms: _392  and  _393
REMARK  162  A    between atoms: _396  and  _398
REMARK  163  A    between atoms: _398  and  _399
REMARK  164  A    between atoms: _401  and  _403
REMARK  165  A    between atoms: _403  and  _404
REMARK  166  A    between atoms: _403  and  _406
REMARK  167  A    between atoms: _406  and  _407
REMARK  168  A    between atoms: _413  and  _415
REMARK  169  A    between atoms: _415  and  _416
REMARK  170  A    between atoms: _415  and  _418
REMARK  171  A    between atoms: _418  and  _419
REMARK  172  A    between atoms: _422  and  _424
REMARK  173  A    between atoms: _424  and  _425
REMARK  174  A    between atoms: _424  and  _427
REMARK  175  A    between atoms: _427  and  _428
REMARK  176  A    between atoms: _433  and  _435
REMARK  177  A    between atoms: _435  and  _436
REMARK  178  A    between atoms: _435  and  _438
REMARK  179  A    between atoms: _438  and  _439
REMARK  180  A    between atoms: _442  and  _444
REMARK  181  A    between atoms: _444  and  _445
REMARK  182  A    between atoms: _444  and  _447
REMARK  183  A    between atoms: _447  and  _448
REMARK  184  A    between atoms: _453  and  _454
REMARK  185  A    between atoms: _456  and  _458
REMARK  186  A    between atoms: _458  and  _459
REMARK  187  A    between atoms: _458  and  _461
REMARK  188  A    between atoms: _461  and  _462
REMARK  189  A    between atoms: _465  and  _467
REMARK  190  A    between atoms: _467  and  _468
REMARK  191  A    between atoms: _467  and  _470
REMARK  192  A    between atoms: _470  and  _471
REMARK  193  A    between atoms: _471  and  _472
REMARK  194  A    between atoms: _475  and  _477
REMARK  195  A    between atoms: _477  and  _478
REMARK  196  A    between atoms: _477  and  _480
REMARK  197  A    between atoms: _480  and  _481
REMARK  198  A    between atoms: _484  and  _486
REMARK  199  A    between atoms: _486  and  _487
REMARK  200  A    between atoms: _489  and  _491
REMARK  201  A    between atoms: _491  and  _492
REMARK  202  A    between atoms: _494  and  _496
REMARK  203  A    between atoms: _496  and  _497
REMARK  204  A    between atoms: _496  and  _499
REMARK  205  A    between atoms: _499  and  _500
REMARK  206  A    between atoms: _500  and  _501
REMARK  207  A    between atoms: _506  and  _508
REMARK  208  A    between atoms: _508  and  _509
REMARK  209  A    between atoms: _512  and  _514
REMARK  210  A    between atoms: _514  and  _515
REMARK  211  A    between atoms: _514  and  _517
REMARK  212  A    between atoms: _517  and  _518
REMARK  213  A    between atoms: _521  and  _523
REMARK  214  A    between atoms: _523  and  _524
REMARK  215  A    between atoms: _523  and  _526
REMARK  216  A    between atoms: _526  and  _527
REMARK  217  A    between atoms: _527  and  _528
REMARK  218  A    between atoms: _533  and  _535
REMARK  219  A    between atoms: _535  and  _536
REMARK  220  A    between atoms: _535  and  _538
REMARK  221  A    between atoms: _538  and  _539
REMARK  222  A    between atoms: _542  and  _544
REMARK  223  A    between atoms: _544  and  _545
REMARK  224  A    between atoms: _544  and  _547
REMARK  225  A    between atoms: _547  and  _548
REMARK  226  A    between atoms: _548  and  _549
REMARK  227  A    between atoms: _549  and  _550
REMARK                            x       y       z     vdW  Elec       q    Type
REMARK                         _______ _______ _______ _____ _____    ______ ____
ROOT
ATOM      1  O   HOH     1      -8.751 -16.030   9.683  0.00  0.00    +0.000 OA
ENDROOT
TORSDOF 0
REMARK  Name = ../refined-set-2016/4r75/4r75_pocket.pdb
REMARK  227 active torsions:
REMARK  status: ('A' for Active; 'I' for Inactive)
REMARK    1  A    between atoms: _1  and  _3
REMARK    2  A    between atoms: _3  and  _4
REMARK    3  A    between atoms: _3  and  _6
REMARK    4  A    between atoms: _8  and  _10
REMARK    5  A    between atoms: _10  and  _11
REMARK    6  A    between atoms: _10  and  _13
REMARK    7  A    between atoms: _13  and  _14
REMARK    8  A    between atoms: _16  and  _18
REMARK    9  A    between atoms: _18  and  _19
REMARK   10  A    between atoms: _22  and  _24
REMARK   11  A    between atoms: _24  and  _25
REMARK   12  A    between atoms: _24  and  _27
REMARK   13  A    between atoms: _27  and  _28
REMARK   14  A    between atoms: _31  and  _33
REMARK   15  A    between atoms: _33  and  _34
REMARK   16  A    between atoms: _33  and  _36
REMARK   17  A    between atoms: _36  and  _37
REMARK   18  A    between atoms: _42  and  _44
REMARK   19  A    between atoms: _44  and  _45
REMARK   20  A    between atoms: _44  and  _47
REMARK   21  A    between atoms: _47  and  _48
REMARK   22  A    between atoms: _48  and  _49
REMARK   23  A    between atoms: _51  and  _53
REMARK   24  A    between atoms: _53  and  _54
REMARK   25  A    between atoms: _53  and  _56
REMARK   26  A    between atoms: _56  and  _57
REMARK   27  A    between atoms: _57  and  _58
REMARK   28  A    between atoms: _58  and  _59
REMARK   29  A    between atoms: _68  and  _70
REMARK   30  A    between atoms: _70  and  _71
REMARK   31  A    between atoms: _70  and  _73
REMARK   32  A    between atoms: _73  and  _74
REMARK   33  A    between atoms: _79  and  _81
REMARK   34  A    between atoms: _81  and  _82
REMARK   35  A    between atoms: _84  and  _86
REMARK   36  A    between atoms: _86  and  _87
REMARK   37  A    between atoms: _86  and  _89
REMARK   38  A    between atoms: _89  and  _90
REMARK   39  A    between atoms: _92  and  _94
REMARK   40  A    between atoms: _94  and  _95
REMARK   41  A    between atoms: _97  and  _99
REMARK   42  A    between atoms: _99  and  _100
REMARK   43  A    between atoms: _99  and  _102
REMARK   44  A    between atoms: _102  and  _103
REMARK   45  A    between atoms: _105  and  _107
REMARK   46  A    between atoms: _107  and  _108
REMARK   47  A    between atoms: _107  and  _110
REMARK   48  A    between atoms: _110  and  _111
REMARK   49  A    between atoms: _114  and  _116
REMARK   50  A    between atoms: _116  and  _117
REMARK   51  A    between atoms: _116  and  _119
REMARK   52  A    between atoms: _119  and  _120
REMARK   53  A    between atoms: _126  and  _128
REMARK   54  A    between atoms: _128  and  _129
REMARK   55  A    between atoms: _128  and  _131
REMARK   56  A    between atoms: _131  and  _132
REMARK   57  A    between atoms: _142  and  _144
REMARK   58  A    between atoms: _144  and  _145
REMARK   59  A    between atoms: _144  and  _147
REMARK   60  A    between atoms: _147  and  _148
REMARK   61  A    between atoms: _153  and  _154
REMARK   62  A    between atoms: _156  and  _158
REMARK   63  A    between atoms: _158  and  _159
REMARK   64  A    between atoms: _161  and  _163
REMARK   65  A    between atoms: _163  and  _164
REMARK   66  A    between atoms: _166  and  _168
REMARK   67  A    between atoms: _168  and  _169
REMARK   68  A    between atoms: _168  and  _171
REMARK   69  A    between atoms: _171  and  _172
REMARK   70  A    between atoms: _175  and  _177
REMARK   71  A    between atoms: _177  and  _178
REMARK   72  A    between atoms: _177  and  _180
REMARK   73  A    between atoms: _180  and  _181
REMARK   74  A    between atoms: _184  and  _186
REMARK   75  A    between atoms: _186  and  _187
REMARK   76  A    between atoms: _186  and  _189
REMARK   77  A    between atoms: _189  and  _190
REMARK   78  A    between atoms: _194  and  _195
REMARK   79  A    between atoms: _200  and  _202
REMARK   80  A    between atoms: _202  and  _203
REMARK   81  A    between atoms: _202  and  _205
REMARK   82  A    between atoms: _205  and  _206
REMARK   83  A    between atoms: _206  and  _207
REMARK   84  A    between atoms: _212  and  _214
REMARK   85  A    between atoms: _214  and  _215
REMARK   86  A    between atoms: _214  and  _217
REMARK   87  A    between atoms: _220  and  _222
REMARK   88  A    between atoms: _222  and  _223
REMARK   89  A    between atoms: _222  and  _225
REMARK   90  A    between atoms: _225  and  _226
REMARK   91  A    between atoms: _231  and  _232
REMARK   92  A    between atoms: _234  and  _236
REMARK   93  A    between atoms: _236  and  _237
REMARK   94  A    between atoms: _236  and  _239
REMARK   95  A    between atoms: _239  and  _240
REMARK   96  A    between atoms: _243  and  _245
REMARK   97  A    between atoms: _245  and  _246
REMARK   98  A    between atoms: _248  and  _250
REMARK   99  A    between atoms: _250  and  _251
REMARK  100  A    between atoms: _250  and  _253
REMARK  101  A    between atoms: _253  and  _254
REMARK  102  A    between atoms: _257  and  _259
REMARK  103  A    between atoms: _259  and  _260
REMARK  104  A    between atoms: _263  and  _265
REMARK  105  A    between atoms: _265  and  _266
REMARK  106  A    between atoms: _265  and  _268
REMARK  107  A    between atoms: _268  and  _269
REMARK  108  A    between atoms: _272  and  _274
REMARK  109  A    between atoms: _274  and  _275
REMARK  110  A    between atoms: _274  and  _277
REMARK  111  A    between atoms: _277  and  _278
REMARK  112  A    between atoms: _280  and  _282
REMARK  113  A    between atoms: _282  and  _283
REMARK  114  A    between atoms: _282  and  _285
REMARK  115  A    between atoms: _285  and  _286
REMARK  116  A    between atoms: _288  and  _290
REMARK  117  A    between atoms: _290  and  _291
REMARK  118  A    between atoms: _293  and  _295
REMARK  119  A    between atoms: _295  and  _296
REMARK  120  A    between atoms: _295  and  _298
REMARK  121  A    between atoms: _298  and  _299
REMARK  122  A    between atoms: _302  and  _304
REMARK  123  A    between atoms: _304  and  _305
REMARK  124  A    between atoms: _308  and  _310
REMARK  125  A    between atoms: _310  and  _311
REMARK  126  A    between atoms: _310  and  _313
REMARK  127  A    between atoms: _313  and  _314
REMARK  128  A    between atoms: _319  and  _320
REMARK  129  A    between atoms: _322  and  _324
REMARK  130  A    between atoms: _324  and  _325
REMARK  131  A    between atoms: _324  and  _327
REMARK  132  A    between atoms: _327  and  _328
REMARK  133  A    between atoms: _331  and  _333
REMARK  134  A    between atoms: _333  and  _334
REMARK  135  A    between atoms: _337  and  _339
REMARK  136  A    between atoms: _339  and  _340
REMARK  137  A    between atoms: _339  and  _342
REMARK  138  A    between atoms: _342  and  _343
REMARK  139  A    between atoms: _346  and  _348
REMARK  140  A    between atoms: _348  and  _349
REMARK  141  A    between atoms: _348  and  _351
REMARK  142  A    between atoms: _351  and  _352
REMARK  143  A    between atoms: _352  and  _353
REMARK  144  A    between atoms: _353  and  _354
REMARK  145  A    between atoms: _354  and  _355
REMARK  146  A    between atoms: _359  and  _361
REMARK  147  A    between atoms: _361  and  _362
REMARK  148  A    between atoms: _361  and  _364
REMARK  149  A    between atoms: _364  and  _365
REMARK  150  A    between atoms: _367  and  _369
REMARK  151  A    between atoms: _369  and  _370
REMARK  152  A    between atoms: _372  and  _374
REMARK  153  A    between atoms: _374  and  _375
REMARK  154  A    between atoms: _374  and  _377
REMARK  155  A    between atoms: _377  and  _378
REMARK  156  A    between atoms: _381  and  _383
REMARK  157  A    between atoms: _383  and  _384
REMARK  158  A    between atoms: _383  and  _386
REMARK  159  A    between atoms: _386  and  _387
REMARK  160  A    between atoms: _390  and  _392
REMARK  161  A    between atoms: _392  and  _393
REMARK  162  A    between atoms: _396  and  _398
REMARK  163  A    between atoms: _398  and  _399
REMARK  164  A    between atoms: _401  and  _403
REMARK  165  A    between atoms: _403  and  _404
REMARK  166  A    between atoms: _403  and  _406
REMARK  167  A    between atoms: _406  and  _407
REMARK  168  A    between atoms: _413  and  _415
REMARK  169  A    between atoms: _415  and  _416
REMARK  170  A    between atoms: _415  and  _418
REMARK  171  A    between atoms: _418  and  _419
REMARK  172  A    between atoms: _422  and  _424
REMARK  173  A    between atoms: _424  and  _425
REMARK  174  A    between atoms: _424  and  _427
REMARK  175  A    between atoms: _427  and  _428
REMARK  176  A    between atoms: _433  and  _435
REMARK  177  A    between atoms: _435  and  _436
REMARK  178  A    between atoms: _435  and  _438
REMARK  179  A    between atoms: _438  and  _439
REMARK  180  A    between atoms: _442  and  _444
REMARK  181  A    between atoms: _444  and  _445
REMARK  182  A    between atoms: _444  and  _447
REMARK  183  A    between atoms: _447  and  _448
REMARK  184  A    between atoms: _453  and  _454
REMARK  185  A    between atoms: _456  and  _458
REMARK  186  A    between atoms: _458  and  _459
REMARK  187  A    between atoms: _458  and  _461
REMARK  188  A    between atoms: _461  and  _462
REMARK  189  A    between atoms: _465  and  _467
REMARK  190  A    between atoms: _467  and  _468
REMARK  191  A    between atoms: _467  and  _470
REMARK  192  A    between atoms: _470  and  _471
REMARK  193  A    between atoms: _471  and  _472
REMARK  194  A    between atoms: _475  and  _477
REMARK  195  A    between atoms: _477  and  _478
REMARK  196  A    between atoms: _477  and  _480
REMARK  197  A    between atoms: _480  and  _481
REMARK  198  A    between atoms: _484  and  _486
REMARK  199  A    between atoms: _486  and  _487
REMARK  200  A    between atoms: _489  and  _491
REMARK  201  A    between atoms: _491  and  _492
REMARK  202  A    between atoms: _494  and  _496
REMARK  203  A    between atoms: _496  and  _497
REMARK  204  A    between atoms: _496  and  _499
REMARK  205  A    between atoms: _499  and  _500
REMARK  206  A    between atoms: _500  and  _501
REMARK  207  A    between atoms: _506  and  _508
REMARK  208  A    between atoms: _508  and  _509
REMARK  209  A    between atoms: _512  and  _514
REMARK  210  A    between atoms: _514  and  _515
REMARK  211  A    between atoms: _514  and  _517
REMARK  212  A    between atoms: _517  and  _518
REMARK  213  A    between atoms: _521  and  _523
REMARK  214  A    between atoms: _523  and  _524
REMARK  215  A    between atoms: _523  and  _526
REMARK  216  A    between atoms: _526  and  _527
REMARK  217  A    between atoms: _527  and  _528
REMARK  218  A    between atoms: _533  and  _535
REMARK  219  A    between atoms: _535  and  _536
REMARK  220  A    between atoms: _535  and  _538
REMARK  221  A    between atoms: _538  and  _539
REMARK  222  A    between atoms: _542  and  _544
REMARK  223  A    between atoms: _544  and  _545
REMARK  224  A    between atoms: _544  and  _547
REMARK  225  A    between atoms: _547  and  _548
REMARK  226  A    between atoms: _548  and  _549
REMARK  227  A    between atoms: _549  and  _550
REMARK                            x       y       z     vdW  Elec       q    Type
REMARK                         _______ _______ _______ _____ _____    ______ ____
ROOT
ATOM      1  O   HOH     1     -17.594  -5.664  21.255  0.00  0.00    +0.000 OA
ENDROOT
TORSDOF 0
REMARK  Name = ../refined-set-2016/4r75/4r75_pocket.pdb
REMARK  227 active torsions:
REMARK  status: ('A' for Active; 'I' for Inactive)
REMARK    1  A    between atoms: _1  and  _3
REMARK    2  A    between atoms: _3  and  _4
REMARK    3  A    between atoms: _3  and  _6
REMARK    4  A    between atoms: _8  and  _10
REMARK    5  A    between atoms: _10  and  _11
REMARK    6  A    between atoms: _10  and  _13
REMARK    7  A    between atoms: _13  and  _14
REMARK    8  A    between atoms: _16  and  _18
REMARK    9  A    between atoms: _18  and  _19
REMARK   10  A    between atoms: _22  and  _24
REMARK   11  A    between atoms: _24  and  _25
REMARK   12  A    between atoms: _24  and  _27
REMARK   13  A    between atoms: _27  and  _28
REMARK   14  A    between atoms: _31  and  _33
REMARK   15  A    between atoms: _33  and  _34
REMARK   16  A    between atoms: _33  and  _36
REMARK   17  A    between atoms: _36  and  _37
REMARK   18  A    between atoms: _42  and  _44
REMARK   19  A    between atoms: _44  and  _45
REMARK   20  A    between atoms: _44  and  _47
REMARK   21  A    between atoms: _47  and  _48
REMARK   22  A    between atoms: _48  and  _49
REMARK   23  A    between atoms: _51  and  _53
REMARK   24  A    between atoms: _53  and  _54
REMARK   25  A    between atoms: _53  and  _56
REMARK   26  A    between atoms: _56  and  _57
REMARK   27  A    between atoms: _57  and  _58
REMARK   28  A    between atoms: _58  and  _59
REMARK   29  A    between atoms: _68  and  _70
REMARK   30  A    between atoms: _70  and  _71
REMARK   31  A    between atoms: _70  and  _73
REMARK   32  A    between atoms: _73  and  _74
REMARK   33  A    between atoms: _79  and  _81
REMARK   34  A    between atoms: _81  and  _82
REMARK   35  A    between atoms: _84  and  _86
REMARK   36  A    between atoms: _86  and  _87
REMARK   37  A    between atoms: _86  and  _89
REMARK   38  A    between atoms: _89  and  _90
REMARK   39  A    between atoms: _92  and  _94
REMARK   40  A    between atoms: _94  and  _95
REMARK   41  A    between atoms: _97  and  _99
REMARK   42  A    between atoms: _99  and  _100
REMARK   43  A    between atoms: _99  and  _102
REMARK   44  A    between atoms: _102  and  _103
REMARK   45  A    between atoms: _105  and  _107
REMARK   46  A    between atoms: _107  and  _108
REMARK   47  A    between atoms: _107  and  _110
REMARK   48  A    between atoms: _110  and  _111
REMARK   49  A    between atoms: _114  and  _116
REMARK   50  A    between atoms: _116  and  _117
REMARK   51  A    between atoms: _116  and  _119
REMARK   52  A    between atoms: _119  and  _120
REMARK   53  A    between atoms: _126  and  _128
REMARK   54  A    between atoms: _128  and  _129
REMARK   55  A    between atoms: _128  and  _131
REMARK   56  A    between atoms: _131  and  _132
REMARK   57  A    between atoms: _142  and  _144
REMARK   58  A    between atoms: _144  and  _145
REMARK   59  A    between atoms: _144  and  _147
REMARK   60  A    between atoms: _147  and  _148
REMARK   61  A    between atoms: _153  and  _154
REMARK   62  A    between atoms: _156  and  _158
REMARK   63  A    between atoms: _158  and  _159
REMARK   64  A    between atoms: _161  and  _163
REMARK   65  A    between atoms: _163  and  _164
REMARK   66  A    between atoms: _166  and  _168
REMARK   67  A    between atoms: _168  and  _169
REMARK   68  A    between atoms: _168  and  _171
REMARK   69  A    between atoms: _171  and  _172
REMARK   70  A    between atoms: _175  and  _177
REMARK   71  A    between atoms: _177  and  _178
REMARK   72  A    between atoms: _177  and  _180
REMARK   73  A    between atoms: _180  and  _181
REMARK   74  A    between atoms: _184  and  _186
REMARK   75  A    between atoms: _186  and  _187
REMARK   76  A    between atoms: _186  and  _189
REMARK   77  A    between atoms: _189  and  _190
REMARK   78  A    between atoms: _194  and  _195
REMARK   79  A    between atoms: _200  and  _202
REMARK   80  A    between atoms: _202  and  _203
REMARK   81  A    between atoms: _202  and  _205
REMARK   82  A    between atoms: _205  and  _206
REMARK   83  A    between atoms: _206  and  _207
REMARK   84  A    between atoms: _212  and  _214
REMARK   85  A    between atoms: _214  and  _215
REMARK   86  A    between atoms: _214  and  _217
REMARK   87  A    between atoms: _220  and  _222
REMARK   88  A    between atoms: _222  and  _223
REMARK   89  A    between atoms: _222  and  _225
REMARK   90  A    between atoms: _225  and  _226
REMARK   91  A    between atoms: _231  and  _232
REMARK   92  A    between atoms: _234  and  _236
REMARK   93  A    between atoms: _236  and  _237
REMARK   94  A    between atoms: _236  and  _239
REMARK   95  A    between atoms: _239  and  _240
REMARK   96  A    between atoms: _243  and  _245
REMARK   97  A    between atoms: _245  and  _246
REMARK   98  A    between atoms: _248  and  _250
REMARK   99  A    between atoms: _250  and  _251
REMARK  100  A    between atoms: _250  and  _253
REMARK  101  A    between atoms: _253  and  _254
REMARK  102  A    between atoms: _257  and  _259
REMARK  103  A    between atoms: _259  and  _260
REMARK  104  A    between atoms: _263  and  _265
REMARK  105  A    between atoms: _265  and  _266
REMARK  106  A    between atoms: _265  and  _268
REMARK  107  A    between atoms: _268  and  _269
REMARK  108  A    between atoms: _272  and  _274
REMARK  109  A    between atoms: _274  and  _275
REMARK  110  A    between atoms: _274  and  _277
REMARK  111  A    between atoms: _277  and  _278
REMARK  112  A    between atoms: _280  and  _282
REMARK  113  A    between atoms: _282  and  _283
REMARK  114  A    between atoms: _282  and  _285
REMARK  115  A    between atoms: _285  and  _286
REMARK  116  A    between atoms: _288  and  _290
REMARK  117  A    between atoms: _290  and  _291
REMARK  118  A    between atoms: _293  and  _295
REMARK  119  A    between atoms: _295  and  _296
REMARK  120  A    between atoms: _295  and  _298
REMARK  121  A    between atoms: _298  and  _299
REMARK  122  A    between atoms: _302  and  _304
REMARK  123  A    between atoms: _304  and  _305
REMARK  124  A    between atoms: _308  and  _310
REMARK  125  A    between atoms: _310  and  _311
REMARK  126  A    between atoms: _310  and  _313
REMARK  127  A    between atoms: _313  and  _314
REMARK  128  A    between atoms: _319  and  _320
REMARK  129  A    between atoms: _322  and  _324
REMARK  130  A    between atoms: _324  and  _325
REMARK  131  A    between atoms: _324  and  _327
REMARK  132  A    between atoms: _327  and  _328
REMARK  133  A    between atoms: _331  and  _333
REMARK  134  A    between atoms: _333  and  _334
REMARK  135  A    between atoms: _337  and  _339
REMARK  136  A    between atoms: _339  and  _340
REMARK  137  A    between atoms: _339  and  _342
REMARK  138  A    between atoms: _342  and  _343
REMARK  139  A    between atoms: _346  and  _348
REMARK  140  A    between atoms: _348  and  _349
REMARK  141  A    between atoms: _348  and  _351
REMARK  142  A    between atoms: _351  and  _352
REMARK  143  A    between atoms: _352  and  _353
REMARK  144  A    between atoms: _353  and  _354
REMARK  145  A    between atoms: _354  and  _355
REMARK  146  A    between atoms: _359  and  _361
REMARK  147  A    between atoms: _361  and  _362
REMARK  148  A    between atoms: _361  and  _364
REMARK  149  A    between atoms: _364  and  _365
REMARK  150  A    between atoms: _367  and  _369
REMARK  151  A    between atoms: _369  and  _370
REMARK  152  A    between atoms: _372  and  _374
REMARK  153  A    between atoms: _374  and  _375
REMARK  154  A    between atoms: _374  and  _377
REMARK  155  A    between atoms: _377  and  _378
REMARK  156  A    between atoms: _381  and  _383
REMARK  157  A    between atoms: _383  and  _384
REMARK  158  A    between atoms: _383  and  _386
REMARK  159  A    between atoms: _386  and  _387
REMARK  160  A    between atoms: _390  and  _392
REMARK  161  A    between atoms: _392  and  _393
REMARK  162  A    between atoms: _396  and  _398
REMARK  163  A    between atoms: _398  and  _399
REMARK  164  A    between atoms: _401  and  _403
REMARK  165  A    between atoms: _403  and  _404
REMARK  166  A    between atoms: _403  and  _406
REMARK  167  A    between atoms: _406  and  _407
REMARK  168  A    between atoms: _413  and  _415
REMARK  169  A    between atoms: _415  and  _416
REMARK  170  A    between atoms: _415  and  _418
REMARK  171  A    between atoms: _418  and  _419
REMARK  172  A    between atoms: _422  and  _424
REMARK  173  A    between atoms: _424  and  _425
REMARK  174  A    between atoms: _424  and  _427
REMARK  175  A    between atoms: _427  and  _428
REMARK  176  A    between atoms: _433  and  _435
REMARK  177  A    between atoms: _435  and  _436
REMARK  178  A    between atoms: _435  and  _438
REMARK  179  A    between atoms: _438  and  _439
REMARK  180  A    between atoms: _442  and  _444
REMARK  181  A    between atoms: _444  and  _445
REMARK  182  A    between atoms: _444  and  _447
REMARK  183  A    between atoms: _447  and  _448
REMARK  184  A    between atoms: _453  and  _454
REMARK  185  A    between atoms: _456  and  _458
REMARK  186  A    between atoms: _458  and  _459
REMARK  187  A    between atoms: _458  and  _461
REMARK  188  A    between atoms: _461  and  _462
REMARK  189  A    between atoms: _465  and  _467
REMARK  190  A    between atoms: _467  and  _468
REMARK  191  A    between atoms: _467  and  _470
REMARK  192  A    between atoms: _470  and  _471
REMARK  193  A    between atoms: _471  and  _472
REMARK  194  A    between atoms: _475  and  _477
REMARK  195  A    between atoms: _477  and  _478
REMARK  196  A    between atoms: _477  and  _480
REMARK  197  A    between atoms: _480  and  _481
REMARK  198  A    between atoms: _484  and  _486
REMARK  199  A    between atoms: _486  and  _487
REMARK  200  A    between atoms: _489  and  _491
REMARK  201  A    between atoms: _491  and  _492
REMARK  202  A    between atoms: _494  and  _496
REMARK  203  A    between atoms: _496  and  _497
REMARK  204  A    between atoms: _496  and  _499
REMARK  205  A    between atoms: _499  and  _500
REMARK  206  A    between atoms: _500  and  _501
REMARK  207  A    between atoms: _506  and  _508
REMARK  208  A    between atoms: _508  and  _509
REMARK  209  A    between atoms: _512  and  _514
REMARK  210  A    between atoms: _514  and  _515
REMARK  211  A    between atoms: _514  and  _517
REMARK  212  A    between atoms: _517  and  _518
REMARK  213  A    between atoms: _521  and  _523
REMARK  214  A    between atoms: _523  and  _524
REMARK  215  A    between atoms: _523  and  _526
REMARK  216  A    between atoms: _526  and  _527
REMARK  217  A    between atoms: _527  and  _528
REMARK  218  A    between atoms: _533  and  _535
REMARK  219  A    between atoms: _535  and  _536
REMARK  220  A    between atoms: _535  and  _538
REMARK  221  A    between atoms: _538  and  _539
REMARK  222  A    between atoms: _542  and  _544
REMARK  223  A    between atoms: _544  and  _545
REMARK  224  A    between atoms: _544  and  _547
REMARK  225  A    between atoms: _547  and  _548
REMARK  226  A    between atoms: _548  and  _549
REMARK  227  A    between atoms: _549  and  _550
REMARK                            x       y       z     vdW  Elec       q    Type
REMARK                         _______ _______ _______ _____ _____    ______ ____
ROOT
ATOM      1  O   HOH     1      -4.786  -6.267  11.575  0.00  0.00    +0.000 OA
ENDROOT
TORSDOF 0
REMARK  Name = ../refined-set-2016/4r75/4r75_pocket.pdb
REMARK  227 active torsions:
REMARK  status: ('A' for Active; 'I' for Inactive)
REMARK    1  A    between atoms: _1  and  _3
REMARK    2  A    between atoms: _3  and  _4
REMARK    3  A    between atoms: _3  and  _6
REMARK    4  A    between atoms: _8  and  _10
REMARK    5  A    between atoms: _10  and  _11
REMARK    6  A    between atoms: _10  and  _13
REMARK    7  A    between atoms: _13  and  _14
REMARK    8  A    between atoms: _16  and  _18
REMARK    9  A    between atoms: _18  and  _19
REMARK   10  A    between atoms: _22  and  _24
REMARK   11  A    between atoms: _24  and  _25
REMARK   12  A    between atoms: _24  and  _27
REMARK   13  A    between atoms: _27  and  _28
REMARK   14  A    between atoms: _31  and  _33
REMARK   15  A    between atoms: _33  and  _34
REMARK   16  A    between atoms: _33  and  _36
REMARK   17  A    between atoms: _36  and  _37
REMARK   18  A    between atoms: _42  and  _44
REMARK   19  A    between atoms: _44  and  _45
REMARK   20  A    between atoms: _44  and  _47
REMARK   21  A    between atoms: _47  and  _48
REMARK   22  A    between atoms: _48  and  _49
REMARK   23  A    between atoms: _51  and  _53
REMARK   24  A    between atoms: _53  and  _54
REMARK   25  A    between atoms: _53  and  _56
REMARK   26  A    between atoms: _56  and  _57
REMARK   27  A    between atoms: _57  and  _58
REMARK   28  A    between atoms: _58  and  _59
REMARK   29  A    between atoms: _68  and  _70
REMARK   30  A    between atoms: _70  and  _71
REMARK   31  A    between atoms: _70  and  _73
REMARK   32  A    between atoms: _73  and  _74
REMARK   33  A    between atoms: _79  and  _81
REMARK   34  A    between atoms: _81  and  _82
REMARK   35  A    between atoms: _84  and  _86
REMARK   36  A    between atoms: _86  and  _87
REMARK   37  A    between atoms: _86  and  _89
REMARK   38  A    between atoms: _89  and  _90
REMARK   39  A    between atoms: _92  and  _94
REMARK   40  A    between atoms: _94  and  _95
REMARK   41  A    between atoms: _97  and  _99
REMARK   42  A    between atoms: _99  and  _100
REMARK   43  A    between atoms: _99  and  _102
REMARK   44  A    between atoms: _102  and  _103
REMARK   45  A    between atoms: _105  and  _107
REMARK   46  A    between atoms: _107  and  _108
REMARK   47  A    between atoms: _107  and  _110
REMARK   48  A    between atoms: _110  and  _111
REMARK   49  A    between atoms: _114  and  _116
REMARK   50  A    between atoms: _116  and  _117
REMARK   51  A    between atoms: _116  and  _119
REMARK   52  A    between atoms: _119  and  _120
REMARK   53  A    between atoms: _126  and  _128
REMARK   54  A    between atoms: _128  and  _129
REMARK   55  A    between atoms: _128  and  _131
REMARK   56  A    between atoms: _131  and  _132
REMARK   57  A    between atoms: _142  and  _144
REMARK   58  A    between atoms: _144  and  _145
REMARK   59  A    between atoms: _144  and  _147
REMARK   60  A    between atoms: _147  and  _148
REMARK   61  A    between atoms: _153  and  _154
REMARK   62  A    between atoms: _156  and  _158
REMARK   63  A    between atoms: _158  and  _159
REMARK   64  A    between atoms: _161  and  _163
REMARK   65  A    between atoms: _163  and  _164
REMARK   66  A    between atoms: _166  and  _168
REMARK   67  A    between atoms: _168  and  _169
REMARK   68  A    between atoms: _168  and  _171
REMARK   69  A    between atoms: _171  and  _172
REMARK   70  A    between atoms: _175  and  _177
REMARK   71  A    between atoms: _177  and  _178
REMARK   72  A    between atoms: _177  and  _180
REMARK   73  A    between atoms: _180  and  _181
REMARK   74  A    between atoms: _184  and  _186
REMARK   75  A    between atoms: _186  and  _187
REMARK   76  A    between atoms: _186  and  _189
REMARK   77  A    between atoms: _189  and  _190
REMARK   78  A    between atoms: _194  and  _195
REMARK   79  A    between atoms: _200  and  _202
REMARK   80  A    between atoms: _202  and  _203
REMARK   81  A    between atoms: _202  and  _205
REMARK   82  A    between atoms: _205  and  _206
REMARK   83  A    between atoms: _206  and  _207
REMARK   84  A    between atoms: _212  and  _214
REMARK   85  A    between atoms: _214  and  _215
REMARK   86  A    between atoms: _214  and  _217
REMARK   87  A    between atoms: _220  and  _222
REMARK   88  A    between atoms: _222  and  _223
REMARK   89  A    between atoms: _222  and  _225
REMARK   90  A    between atoms: _225  and  _226
REMARK   91  A    between atoms: _231  and  _232
REMARK   92  A    between atoms: _234  and  _236
REMARK   93  A    between atoms: _236  and  _237
REMARK   94  A    between atoms: _236  and  _239
REMARK   95  A    between atoms: _239  and  _240
REMARK   96  A    between atoms: _243  and  _245
REMARK   97  A    between atoms: _245  and  _246
REMARK   98  A    between atoms: _248  and  _250
REMARK   99  A    between atoms: _250  and  _251
REMARK  100  A    between atoms: _250  and  _253
REMARK  101  A    between atoms: _253  and  _254
REMARK  102  A    between atoms: _257  and  _259
REMARK  103  A    between atoms: _259  and  _260
REMARK  104  A    between atoms: _263  and  _265
REMARK  105  A    between atoms: _265  and  _266
REMARK  106  A    between atoms: _265  and  _268
REMARK  107  A    between atoms: _268  and  _269
REMARK  108  A    between atoms: _272  and  _274
REMARK  109  A    between atoms: _274  and  _275
REMARK  110  A    between atoms: _274  and  _277
REMARK  111  A    between atoms: _277  and  _278
REMARK  112  A    between atoms: _280  and  _282
REMARK  113  A    between atoms: _282  and  _283
REMARK  114  A    between atoms: _282  and  _285
REMARK  115  A    between atoms: _285  and  _286
REMARK  116  A    between atoms: _288  and  _290
REMARK  117  A    between atoms: _290  and  _291
REMARK  118  A    between atoms: _293  and  _295
REMARK  119  A    between atoms: _295  and  _296
REMARK  120  A    between atoms: _295  and  _298
REMARK  121  A    between atoms: _298  and  _299
REMARK  122  A    between atoms: _302  and  _304
REMARK  123  A    between atoms: _304  and  _305
REMARK  124  A    between atoms: _308  and  _310
REMARK  125  A    between atoms: _310  and  _311
REMARK  126  A    between atoms: _310  and  _313
REMARK  127  A    between atoms: _313  and  _314
REMARK  128  A    between atoms: _319  and  _320
REMARK  129  A    between atoms: _322  and  _324
REMARK  130  A    between atoms: _324  and  _325
REMARK  131  A    between atoms: _324  and  _327
REMARK  132  A    between atoms: _327  and  _328
REMARK  133  A    between atoms: _331  and  _333
REMARK  134  A    between atoms: _333  and  _334
REMARK  135  A    between atoms: _337  and  _339
REMARK  136  A    between atoms: _339  and  _340
REMARK  137  A    between atoms: _339  and  _342
REMARK  138  A    between atoms: _342  and  _343
REMARK  139  A    between atoms: _346  and  _348
REMARK  140  A    between atoms: _348  and  _349
REMARK  141  A    between atoms: _348  and  _351
REMARK  142  A    between atoms: _351  and  _352
REMARK  143  A    between atoms: _352  and  _353
REMARK  144  A    between atoms: _353  and  _354
REMARK  145  A    between atoms: _354  and  _355
REMARK  146  A    between atoms: _359  and  _361
REMARK  147  A    between atoms: _361  and  _362
REMARK  148  A    between atoms: _361  and  _364
REMARK  149  A    between atoms: _364  and  _365
REMARK  150  A    between atoms: _367  and  _369
REMARK  151  A    between atoms: _369  and  _370
REMARK  152  A    between atoms: _372  and  _374
REMARK  153  A    between atoms: _374  and  _375
REMARK  154  A    between atoms: _374  and  _377
REMARK  155  A    between atoms: _377  and  _378
REMARK  156  A    between atoms: _381  and  _383
REMARK  157  A    between atoms: _383  and  _384
REMARK  158  A    between atoms: _383  and  _386
REMARK  159  A    between atoms: _386  and  _387
REMARK  160  A    between atoms: _390  and  _392
REMARK  161  A    between atoms: _392  and  _393
REMARK  162  A    between atoms: _396  and  _398
REMARK  163  A    between atoms: _398  and  _399
REMARK  164  A    between atoms: _401  and  _403
REMARK  165  A    between atoms: _403  and  _404
REMARK  166  A    between atoms: _403  and  _406
REMARK  167  A    between atoms: _406  and  _407
REMARK  168  A    between atoms: _413  and  _415
REMARK  169  A    between atoms: _415  and  _416
REMARK  170  A    between atoms: _415  and  _418
REMARK  171  A    between atoms: _418  and  _419
REMARK  172  A    between atoms: _422  and  _424
REMARK  173  A    between atoms: _424  and  _425
REMARK  174  A    between atoms: _424  and  _427
REMARK  175  A    between atoms: _427  and  _428
REMARK  176  A    between atoms: _433  and  _435
REMARK  177  A    between atoms: _435  and  _436
REMARK  178  A    between atoms: _435  and  _438
REMARK  179  A    between atoms: _438  and  _439
REMARK  180  A    between atoms: _442  and  _444
REMARK  181  A    between atoms: _444  and  _445
REMARK  182  A    between atoms: _444  and  _447
REMARK  183  A    between atoms: _447  and  _448
REMARK  184  A    between atoms: _453  and  _454
REMARK  185  A    between atoms: _456  and  _458
REMARK  186  A    between atoms: _458  and  _459
REMARK  187  A    between atoms: _458  and  _461
REMARK  188  A    between atoms: _461  and  _462
REMARK  189  A    between atoms: _465  and  _467
REMARK  190  A    between atoms: _467  and  _468
REMARK  191  A    between atoms: _467  and  _470
REMARK  192  A    between atoms: _470  and  _471
REMARK  193  A    between atoms: _471  and  _472
REMARK  194  A    between atoms: _475  and  _477
REMARK  195  A    between atoms: _477  and  _478
REMARK  196  A    between atoms: _477  and  _480
REMARK  197  A    between atoms: _480  and  _481
REMARK  198  A    between atoms: _484  and  _486
REMARK  199  A    between atoms: _486  and  _487
REMARK  200  A    between atoms: _489  and  _491
REMARK  201  A    between atoms: _491  and  _492
REMARK  202  A    between atoms: _494  and  _496
REMARK  203  A    between atoms: _496  and  _497
REMARK  204  A    between atoms: _496  and  _499
REMARK  205  A    between atoms: _499  and  _500
REMARK  206  A    between atoms: _500  and  _501
REMARK  207  A    between atoms: _506  and  _508
REMARK  208  A    between atoms: _508  and  _509
REMARK  209  A    between atoms: _512  and  _514
REMARK  210  A    between atoms: _514  and  _515
REMARK  211  A    between atoms: _514  and  _517
REMARK  212  A    between atoms: _517  and  _518
REMARK  213  A    between atoms: _521  and  _523
REMARK  214  A    between atoms: _523  and  _524
REMARK  215  A    between atoms: _523  and  _526
REMARK  216  A    between atoms: _526  and  _527
REMARK  217  A    between atoms: _527  and  _528
REMARK  218  A    between atoms: _533  and  _535
REMARK  219  A    between atoms: _535  and  _536
REMARK  220  A    between atoms: _535  and  _538
REMARK  221  A    between atoms: _538  and  _539
REMARK  222  A    between atoms: _542  and  _544
REMARK  223  A    between atoms: _544  and  _545
REMARK  224  A    between atoms: _544  and  _547
REMARK  225  A    between atoms: _547  and  _548
REMARK  226  A    between atoms: _548  and  _549
REMARK  227  A    between atoms: _549  and  _550
REMARK                            x       y       z     vdW  Elec       q    Type
REMARK                         _______ _______ _______ _____ _____    ______ ____
ROOT
ATOM      1  O   HOH     1     -18.741 -13.115  18.599  0.00  0.00    +0.000 OA
ENDROOT
TORSDOF 0
REMARK  Name = ../refined-set-2016/4r75/4r75_pocket.pdb
REMARK  227 active torsions:
REMARK  status: ('A' for Active; 'I' for Inactive)
REMARK    1  A    between atoms: _1  and  _3
REMARK    2  A    between atoms: _3  and  _4
REMARK    3  A    between atoms: _3  and  _6
REMARK    4  A    between atoms: _8  and  _10
REMARK    5  A    between atoms: _10  and  _11
REMARK    6  A    between atoms: _10  and  _13
REMARK    7  A    between atoms: _13  and  _14
REMARK    8  A    between atoms: _16  and  _18
REMARK    9  A    between atoms: _18  and  _19
REMARK   10  A    between atoms: _22  and  _24
REMARK   11  A    between atoms: _24  and  _25
REMARK   12  A    between atoms: _24  and  _27
REMARK   13  A    between atoms: _27  and  _28
REMARK   14  A    between atoms: _31  and  _33
REMARK   15  A    between atoms: _33  and  _34
REMARK   16  A    between atoms: _33  and  _36
REMARK   17  A    between atoms: _36  and  _37
REMARK   18  A    between atoms: _42  and  _44
REMARK   19  A    between atoms: _44  and  _45
REMARK   20  A    between atoms: _44  and  _47
REMARK   21  A    between atoms: _47  and  _48
REMARK   22  A    between atoms: _48  and  _49
REMARK   23  A    between atoms: _51  and  _53
REMARK   24  A    between atoms: _53  and  _54
REMARK   25  A    between atoms: _53  and  _56
REMARK   26  A    between atoms: _56  and  _57
REMARK   27  A    between atoms: _57  and  _58
REMARK   28  A    between atoms: _58  and  _59
REMARK   29  A    between atoms: _68  and  _70
REMARK   30  A    between atoms: _70  and  _71
REMARK   31  A    between atoms: _70  and  _73
REMARK   32  A    between atoms: _73  and  _74
REMARK   33  A    between atoms: _79  and  _81
REMARK   34  A    between atoms: _81  and  _82
REMARK   35  A    between atoms: _84  and  _86
REMARK   36  A    between atoms: _86  and  _87
REMARK   37  A    between atoms: _86  and  _89
REMARK   38  A    between atoms: _89  and  _90
REMARK   39  A    between atoms: _92  and  _94
REMARK   40  A    between atoms: _94  and  _95
REMARK   41  A    between atoms: _97  and  _99
REMARK   42  A    between atoms: _99  and  _100
REMARK   43  A    between atoms: _99  and  _102
REMARK   44  A    between atoms: _102  and  _103
REMARK   45  A    between atoms: _105  and  _107
REMARK   46  A    between atoms: _107  and  _108
REMARK   47  A    between atoms: _107  and  _110
REMARK   48  A    between atoms: _110  and  _111
REMARK   49  A    between atoms: _114  and  _116
REMARK   50  A    between atoms: _116  and  _117
REMARK   51  A    between atoms: _116  and  _119
REMARK   52  A    between atoms: _119  and  _120
REMARK   53  A    between atoms: _126  and  _128
REMARK   54  A    between atoms: _128  and  _129
REMARK   55  A    between atoms: _128  and  _131
REMARK   56  A    between atoms: _131  and  _132
REMARK   57  A    between atoms: _142  and  _144
REMARK   58  A    between atoms: _144  and  _145
REMARK   59  A    between atoms: _144  and  _147
REMARK   60  A    between atoms: _147  and  _148
REMARK   61  A    between atoms: _153  and  _154
REMARK   62  A    between atoms: _156  and  _158
REMARK   63  A    between atoms: _158  and  _159
REMARK   64  A    between atoms: _161  and  _163
REMARK   65  A    between atoms: _163  and  _164
REMARK   66  A    between atoms: _166  and  _168
REMARK   67  A    between atoms: _168  and  _169
REMARK   68  A    between atoms: _168  and  _171
REMARK   69  A    between atoms: _171  and  _172
REMARK   70  A    between atoms: _175  and  _177
REMARK   71  A    between atoms: _177  and  _178
REMARK   72  A    between atoms: _177  and  _180
REMARK   73  A    between atoms: _180  and  _181
REMARK   74  A    between atoms: _184  and  _186
REMARK   75  A    between atoms: _186  and  _187
REMARK   76  A    between atoms: _186  and  _189
REMARK   77  A    between atoms: _189  and  _190
REMARK   78  A    between atoms: _194  and  _195
REMARK   79  A    between atoms: _200  and  _202
REMARK   80  A    between atoms: _202  and  _203
REMARK   81  A    between atoms: _202  and  _205
REMARK   82  A    between atoms: _205  and  _206
REMARK   83  A    between atoms: _206  and  _207
REMARK   84  A    between atoms: _212  and  _214
REMARK   85  A    between atoms: _214  and  _215
REMARK   86  A    between atoms: _214  and  _217
REMARK   87  A    between atoms: _220  and  _222
REMARK   88  A    between atoms: _222  and  _223
REMARK   89  A    between atoms: _222  and  _225
REMARK   90  A    between atoms: _225  and  _226
REMARK   91  A    between atoms: _231  and  _232
REMARK   92  A    between atoms: _234  and  _236
REMARK   93  A    between atoms: _236  and  _237
REMARK   94  A    between atoms: _236  and  _239
REMARK   95  A    between atoms: _239  and  _240
REMARK   96  A    between atoms: _243  and  _245
REMARK   97  A    between atoms: _245  and  _246
REMARK   98  A    between atoms: _248  and  _250
REMARK   99  A    between atoms: _250  and  _251
REMARK  100  A    between atoms: _250  and  _253
REMARK  101  A    between atoms: _253  and  _254
REMARK  102  A    between atoms: _257  and  _259
REMARK  103  A    between atoms: _259  and  _260
REMARK  104  A    between atoms: _263  and  _265
REMARK  105  A    between atoms: _265  and  _266
REMARK  106  A    between atoms: _265  and  _268
REMARK  107  A    between atoms: _268  and  _269
REMARK  108  A    between atoms: _272  and  _274
REMARK  109  A    between atoms: _274  and  _275
REMARK  110  A    between atoms: _274  and  _277
REMARK  111  A    between atoms: _277  and  _278
REMARK  112  A    between atoms: _280  and  _282
REMARK  113  A    between atoms: _282  and  _283
REMARK  114  A    between atoms: _282  and  _285
REMARK  115  A    between atoms: _285  and  _286
REMARK  116  A    between atoms: _288  and  _290
REMARK  117  A    between atoms: _290  and  _291
REMARK  118  A    between atoms: _293  and  _295
REMARK  119  A    between atoms: _295  and  _296
REMARK  120  A    between atoms: _295  and  _298
REMARK  121  A    between atoms: _298  and  _299
REMARK  122  A    between atoms: _302  and  _304
REMARK  123  A    between atoms: _304  and  _305
REMARK  124  A    between atoms: _308  and  _310
REMARK  125  A    between atoms: _310  and  _311
REMARK  126  A    between atoms: _310  and  _313
REMARK  127  A    between atoms: _313  and  _314
REMARK  128  A    between atoms: _319  and  _320
REMARK  129  A    between atoms: _322  and  _324
REMARK  130  A    between atoms: _324  and  _325
REMARK  131  A    between atoms: _324  and  _327
REMARK  132  A    between atoms: _327  and  _328
REMARK  133  A    between atoms: _331  and  _333
REMARK  134  A    between atoms: _333  and  _334
REMARK  135  A    between atoms: _337  and  _339
REMARK  136  A    between atoms: _339  and  _340
REMARK  137  A    between atoms: _339  and  _342
REMARK  138  A    between atoms: _342  and  _343
REMARK  139  A    between atoms: _346  and  _348
REMARK  140  A    between atoms: _348  and  _349
REMARK  141  A    between atoms: _348  and  _351
REMARK  142  A    between atoms: _351  and  _352
REMARK  143  A    between atoms: _352  and  _353
REMARK  144  A    between atoms: _353  and  _354
REMARK  145  A    between atoms: _354  and  _355
REMARK  146  A    between atoms: _359  and  _361
REMARK  147  A    between atoms: _361  and  _362
REMARK  148  A    between atoms: _361  and  _364
REMARK  149  A    between atoms: _364  and  _365
REMARK  150  A    between atoms: _367  and  _369
REMARK  151  A    between atoms: _369  and  _370
REMARK  152  A    between atoms: _372  and  _374
REMARK  153  A    between atoms: _374  and  _375
REMARK  154  A    between atoms: _374  and  _377
REMARK  155  A    between atoms: _377  and  _378
REMARK  156  A    between atoms: _381  and  _383
REMARK  157  A    between atoms: _383  and  _384
REMARK  158  A    between atoms: _383  and  _386
REMARK  159  A    between atoms: _386  and  _387
REMARK  160  A    between atoms: _390  and  _392
REMARK  161  A    between atoms: _392  and  _393
REMARK  162  A    between atoms: _396  and  _398
REMARK  163  A    between atoms: _398  and  _399
REMARK  164  A    between atoms: _401  and  _403
REMARK  165  A    between atoms: _403  and  _404
REMARK  166  A    between atoms: _403  and  _406
REMARK  167  A    between atoms: _406  and  _407
REMARK  168  A    between atoms: _413  and  _415
REMARK  169  A    between atoms: _415  and  _416
REMARK  170  A    between atoms: _415  and  _418
REMARK  171  A    between atoms: _418  and  _419
REMARK  172  A    between atoms: _422  and  _424
REMARK  173  A    between atoms: _424  and  _425
REMARK  174  A    between atoms: _424  and  _427
REMARK  175  A    between atoms: _427  and  _428
REMARK  176  A    between atoms: _433  and  _435
REMARK  177  A    between atoms: _435  and  _436
REMARK  178  A    between atoms: _435  and  _438
REMARK  179  A    between atoms: _438  and  _439
REMARK  180  A    between atoms: _442  and  _444
REMARK  181  A    between atoms: _444  and  _445
REMARK  182  A    between atoms: _444  and  _447
REMARK  183  A    between atoms: _447  and  _448
REMARK  184  A    between atoms: _453  and  _454
REMARK  185  A    between atoms: _456  and  _458
REMARK  186  A    between atoms: _458  and  _459
REMARK  187  A    between atoms: _458  and  _461
REMARK  188  A    between atoms: _461  and  _462
REMARK  189  A    between atoms: _465  and  _467
REMARK  190  A    between atoms: _467  and  _468
REMARK  191  A    between atoms: _467  and  _470
REMARK  192  A    between atoms: _470  and  _471
REMARK  193  A    between atoms: _471  and  _472
REMARK  194  A    between atoms: _475  and  _477
REMARK  195  A    between atoms: _477  and  _478
REMARK  196  A    between atoms: _477  and  _480
REMARK  197  A    between atoms: _480  and  _481
REMARK  198  A    between atoms: _484  and  _486
REMARK  199  A    between atoms: _486  and  _487
REMARK  200  A    between atoms: _489  and  _491
REMARK  201  A    between atoms: _491  and  _492
REMARK  202  A    between atoms: _494  and  _496
REMARK  203  A    between atoms: _496  and  _497
REMARK  204  A    between atoms: _496  and  _499
REMARK  205  A    between atoms: _499  and  _500
REMARK  206  A    between atoms: _500  and  _501
REMARK  207  A    between atoms: _506  and  _508
REMARK  208  A    between atoms: _508  and  _509
REMARK  209  A    between atoms: _512  and  _514
REMARK  210  A    between atoms: _514  and  _515
REMARK  211  A    between atoms: _514  and  _517
REMARK  212  A    between atoms: _517  and  _518
REMARK  213  A    between atoms: _521  and  _523
REMARK  214  A    between atoms: _523  and  _524
REMARK  215  A    between atoms: _523  and  _526
REMARK  216  A    between atoms: _526  and  _527
REMARK  217  A    between atoms: _527  and  _528
REMARK  218  A    between atoms: _533  and  _535
REMARK  219  A    between atoms: _535  and  _536
REMARK  220  A    between atoms: _535  and  _538
REMARK  221  A    between atoms: _538  and  _539
REMARK  222  A    between atoms: _542  and  _544
REMARK  223  A    between atoms: _544  and  _545
REMARK  224  A    between atoms: _544  and  _547
REMARK  225  A    between atoms: _547  and  _548
REMARK  226  A    between atoms: _548  and  _549
REMARK  227  A    between atoms: _549  and  _550
REMARK                            x       y       z     vdW  Elec       q    Type
REMARK                         _______ _______ _______ _____ _____    ______ ____
ROOT
ATOM      1  O   HOH     1     -12.080 -16.920  11.840  0.00  0.00    +0.000 OA
ENDROOT
TORSDOF 0
REMARK  Name = ../refined-set-2016/4r75/4r75_pocket.pdb
REMARK  227 active torsions:
REMARK  status: ('A' for Active; 'I' for Inactive)
REMARK    1  A    between atoms: _1  and  _3
REMARK    2  A    between atoms: _3  and  _4
REMARK    3  A    between atoms: _3  and  _6
REMARK    4  A    between atoms: _8  and  _10
REMARK    5  A    between atoms: _10  and  _11
REMARK    6  A    between atoms: _10  and  _13
REMARK    7  A    between atoms: _13  and  _14
REMARK    8  A    between atoms: _16  and  _18
REMARK    9  A    between atoms: _18  and  _19
REMARK   10  A    between atoms: _22  and  _24
REMARK   11  A    between atoms: _24  and  _25
REMARK   12  A    between atoms: _24  and  _27
REMARK   13  A    between atoms: _27  and  _28
REMARK   14  A    between atoms: _31  and  _33
REMARK   15  A    between atoms: _33  and  _34
REMARK   16  A    between atoms: _33  and  _36
REMARK   17  A    between atoms: _36  and  _37
REMARK   18  A    between atoms: _42  and  _44
REMARK   19  A    between atoms: _44  and  _45
REMARK   20  A    between atoms: _44  and  _47
REMARK   21  A    between atoms: _47  and  _48
REMARK   22  A    between atoms: _48  and  _49
REMARK   23  A    between atoms: _51  and  _53
REMARK   24  A    between atoms: _53  and  _54
REMARK   25  A    between atoms: _53  and  _56
REMARK   26  A    between atoms: _56  and  _57
REMARK   27  A    between atoms: _57  and  _58
REMARK   28  A    between atoms: _58  and  _59
REMARK   29  A    between atoms: _68  and  _70
REMARK   30  A    between atoms: _70  and  _71
REMARK   31  A    between atoms: _70  and  _73
REMARK   32  A    between atoms: _73  and  _74
REMARK   33  A    between atoms: _79  and  _81
REMARK   34  A    between atoms: _81  and  _82
REMARK   35  A    between atoms: _84  and  _86
REMARK   36  A    between atoms: _86  and  _87
REMARK   37  A    between atoms: _86  and  _89
REMARK   38  A    between atoms: _89  and  _90
REMARK   39  A    between atoms: _92  and  _94
REMARK   40  A    between atoms: _94  and  _95
REMARK   41  A    between atoms: _97  and  _99
REMARK   42  A    between atoms: _99  and  _100
REMARK   43  A    between atoms: _99  and  _102
REMARK   44  A    between atoms: _102  and  _103
REMARK   45  A    between atoms: _105  and  _107
REMARK   46  A    between atoms: _107  and  _108
REMARK   47  A    between atoms: _107  and  _110
REMARK   48  A    between atoms: _110  and  _111
REMARK   49  A    between atoms: _114  and  _116
REMARK   50  A    between atoms: _116  and  _117
REMARK   51  A    between atoms: _116  and  _119
REMARK   52  A    between atoms: _119  and  _120
REMARK   53  A    between atoms: _126  and  _128
REMARK   54  A    between atoms: _128  and  _129
REMARK   55  A    between atoms: _128  and  _131
REMARK   56  A    between atoms: _131  and  _132
REMARK   57  A    between atoms: _142  and  _144
REMARK   58  A    between atoms: _144  and  _145
REMARK   59  A    between atoms: _144  and  _147
REMARK   60  A    between atoms: _147  and  _148
REMARK   61  A    between atoms: _153  and  _154
REMARK   62  A    between atoms: _156  and  _158
REMARK   63  A    between atoms: _158  and  _159
REMARK   64  A    between atoms: _161  and  _163
REMARK   65  A    between atoms: _163  and  _164
REMARK   66  A    between atoms: _166  and  _168
REMARK   67  A    between atoms: _168  and  _169
REMARK   68  A    between atoms: _168  and  _171
REMARK   69  A    between atoms: _171  and  _172
REMARK   70  A    between atoms: _175  and  _177
REMARK   71  A    between atoms: _177  and  _178
REMARK   72  A    between atoms: _177  and  _180
REMARK   73  A    between atoms: _180  and  _181
REMARK   74  A    between atoms: _184  and  _186
REMARK   75  A    between atoms: _186  and  _187
REMARK   76  A    between atoms: _186  and  _189
REMARK   77  A    between atoms: _189  and  _190
REMARK   78  A    between atoms: _194  and  _195
REMARK   79  A    between atoms: _200  and  _202
REMARK   80  A    between atoms: _202  and  _203
REMARK   81  A    between atoms: _202  and  _205
REMARK   82  A    between atoms: _205  and  _206
REMARK   83  A    between atoms: _206  and  _207
REMARK   84  A    between atoms: _212  and  _214
REMARK   85  A    between atoms: _214  and  _215
REMARK   86  A    between atoms: _214  and  _217
REMARK   87  A    between atoms: _220  and  _222
REMARK   88  A    between atoms: _222  and  _223
REMARK   89  A    between atoms: _222  and  _225
REMARK   90  A    between atoms: _225  and  _226
REMARK   91  A    between atoms: _231  and  _232
REMARK   92  A    between atoms: _234  and  _236
REMARK   93  A    between atoms: _236  and  _237
REMARK   94  A    between atoms: _236  and  _239
REMARK   95  A    between atoms: _239  and  _240
REMARK   96  A    between atoms: _243  and  _245
REMARK   97  A    between atoms: _245  and  _246
REMARK   98  A    between atoms: _248  and  _250
REMARK   99  A    between atoms: _250  and  _251
REMARK  100  A    between atoms: _250  and  _253
REMARK  101  A    between atoms: _253  and  _254
REMARK  102  A    between atoms: _257  and  _259
REMARK  103  A    between atoms: _259  and  _260
REMARK  104  A    between atoms: _263  and  _265
REMARK  105  A    between atoms: _265  and  _266
REMARK  106  A    between atoms: _265  and  _268
REMARK  107  A    between atoms: _268  and  _269
REMARK  108  A    between atoms: _272  and  _274
REMARK  109  A    between atoms: _274  and  _275
REMARK  110  A    between atoms: _274  and  _277
REMARK  111  A    between atoms: _277  and  _278
REMARK  112  A    between atoms: _280  and  _282
REMARK  113  A    between atoms: _282  and  _283
REMARK  114  A    between atoms: _282  and  _285
REMARK  115  A    between atoms: _285  and  _286
REMARK  116  A    between atoms: _288  and  _290
REMARK  117  A    between atoms: _290  and  _291
REMARK  118  A    between atoms: _293  and  _295
REMARK  119  A    between atoms: _295  and  _296
REMARK  120  A    between atoms: _295  and  _298
REMARK  121  A    between atoms: _298  and  _299
REMARK  122  A    between atoms: _302  and  _304
REMARK  123  A    between atoms: _304  and  _305
REMARK  124  A    between atoms: _308  and  _310
REMARK  125  A    between atoms: _310  and  _311
REMARK  126  A    between atoms: _310  and  _313
REMARK  127  A    between atoms: _313  and  _314
REMARK  128  A    between atoms: _319  and  _320
REMARK  129  A    between atoms: _322  and  _324
REMARK  130  A    between atoms: _324  and  _325
REMARK  131  A    between atoms: _324  and  _327
REMARK  132  A    between atoms: _327  and  _328
REMARK  133  A    between atoms: _331  and  _333
REMARK  134  A    between atoms: _333  and  _334
REMARK  135  A    between atoms: _337  and  _339
REMARK  136  A    between atoms: _339  and  _340
REMARK  137  A    between atoms: _339  and  _342
REMARK  138  A    between atoms: _342  and  _343
REMARK  139  A    between atoms: _346  and  _348
REMARK  140  A    between atoms: _348  and  _349
REMARK  141  A    between atoms: _348  and  _351
REMARK  142  A    between atoms: _351  and  _352
REMARK  143  A    between atoms: _352  and  _353
REMARK  144  A    between atoms: _353  and  _354
REMARK  145  A    between atoms: _354  and  _355
REMARK  146  A    between atoms: _359  and  _361
REMARK  147  A    between atoms: _361  and  _362
REMARK  148  A    between atoms: _361  and  _364
REMARK  149  A    between atoms: _364  and  _365
REMARK  150  A    between atoms: _367  and  _369
REMARK  151  A    between atoms: _369  and  _370
REMARK  152  A    between atoms: _372  and  _374
REMARK  153  A    between atoms: _374  and  _375
REMARK  154  A    between atoms: _374  and  _377
REMARK  155  A    between atoms: _377  and  _378
REMARK  156  A    between atoms: _381  and  _383
REMARK  157  A    between atoms: _383  and  _384
REMARK  158  A    between atoms: _383  and  _386
REMARK  159  A    between atoms: _386  and  _387
REMARK  160  A    between atoms: _390  and  _392
REMARK  161  A    between atoms: _392  and  _393
REMARK  162  A    between atoms: _396  and  _398
REMARK  163  A    between atoms: _398  and  _399
REMARK  164  A    between atoms: _401  and  _403
REMARK  165  A    between atoms: _403  and  _404
REMARK  166  A    between atoms: _403  and  _406
REMARK  167  A    between atoms: _406  and  _407
REMARK  168  A    between atoms: _413  and  _415
REMARK  169  A    between atoms: _415  and  _416
REMARK  170  A    between atoms: _415  and  _418
REMARK  171  A    between atoms: _418  and  _419
REMARK  172  A    between atoms: _422  and  _424
REMARK  173  A    between atoms: _424  and  _425
REMARK  174  A    between atoms: _424  and  _427
REMARK  175  A    between atoms: _427  and  _428
REMARK  176  A    between atoms: _433  and  _435
REMARK  177  A    between atoms: _435  and  _436
REMARK  178  A    between atoms: _435  and  _438
REMARK  179  A    between atoms: _438  and  _439
REMARK  180  A    between atoms: _442  and  _444
REMARK  181  A    between atoms: _444  and  _445
REMARK  182  A    between atoms: _444  and  _447
REMARK  183  A    between atoms: _447  and  _448
REMARK  184  A    between atoms: _453  and  _454
REMARK  185  A    between atoms: _456  and  _458
REMARK  186  A    between atoms: _458  and  _459
REMARK  187  A    between atoms: _458  and  _461
REMARK  188  A    between atoms: _461  and  _462
REMARK  189  A    between atoms: _465  and  _467
REMARK  190  A    between atoms: _467  and  _468
REMARK  191  A    between atoms: _467  and  _470
REMARK  192  A    between atoms: _470  and  _471
REMARK  193  A    between atoms: _471  and  _472
REMARK  194  A    between atoms: _475  and  _477
REMARK  195  A    between atoms: _477  and  _478
REMARK  196  A    between atoms: _477  and  _480
REMARK  197  A    between atoms: _480  and  _481
REMARK  198  A    between atoms: _484  and  _486
REMARK  199  A    between atoms: _486  and  _487
REMARK  200  A    between atoms: _489  and  _491
REMARK  201  A    between atoms: _491  and  _492
REMARK  202  A    between atoms: _494  and  _496
REMARK  203  A    between atoms: _496  and  _497
REMARK  204  A    between atoms: _496  and  _499
REMARK  205  A    between atoms: _499  and  _500
REMARK  206  A    between atoms: _500  and  _501
REMARK  207  A    between atoms: _506  and  _508
REMARK  208  A    between atoms: _508  and  _509
REMARK  209  A    between atoms: _512  and  _514
REMARK  210  A    between atoms: _514  and  _515
REMARK  211  A    between atoms: _514  and  _517
REMARK  212  A    between atoms: _517  and  _518
REMARK  213  A    between atoms: _521  and  _523
REMARK  214  A    between atoms: _523  and  _524
REMARK  215  A    between atoms: _523  and  _526
REMARK  216  A    between atoms: _526  and  _527
REMARK  217  A    between atoms: _527  and  _528
REMARK  218  A    between atoms: _533  and  _535
REMARK  219  A    between atoms: _535  and  _536
REMARK  220  A    between atoms: _535  and  _538
REMARK  221  A    between atoms: _538  and  _539
REMARK  222  A    between atoms: _542  and  _544
REMARK  223  A    between atoms: _544  and  _545
REMARK  224  A    between atoms: _544  and  _547
REMARK  225  A    between atoms: _547  and  _548
REMARK  226  A    between atoms: _548  and  _549
REMARK  227  A    between atoms: _549  and  _550
REMARK                            x       y       z     vdW  Elec       q    Type
REMARK                         _______ _______ _______ _____ _____    ______ ____
ROOT
ATOM      1  O   HOH     1     -19.151 -13.425  15.807  0.00  0.00    +0.000 OA
ENDROOT
TORSDOF 0
REMARK  Name = ../refined-set-2016/4r75/4r75_pocket.pdb
REMARK  227 active torsions:
REMARK  status: ('A' for Active; 'I' for Inactive)
REMARK    1  A    between atoms: _1  and  _3
REMARK    2  A    between atoms: _3  and  _4
REMARK    3  A    between atoms: _3  and  _6
REMARK    4  A    between atoms: _8  and  _10
REMARK    5  A    between atoms: _10  and  _11
REMARK    6  A    between atoms: _10  and  _13
REMARK    7  A    between atoms: _13  and  _14
REMARK    8  A    between atoms: _16  and  _18
REMARK    9  A    between atoms: _18  and  _19
REMARK   10  A    between atoms: _22  and  _24
REMARK   11  A    between atoms: _24  and  _25
REMARK   12  A    between atoms: _24  and  _27
REMARK   13  A    between atoms: _27  and  _28
REMARK   14  A    between atoms: _31  and  _33
REMARK   15  A    between atoms: _33  and  _34
REMARK   16  A    between atoms: _33  and  _36
REMARK   17  A    between atoms: _36  and  _37
REMARK   18  A    between atoms: _42  and  _44
REMARK   19  A    between atoms: _44  and  _45
REMARK   20  A    between atoms: _44  and  _47
REMARK   21  A    between atoms: _47  and  _48
REMARK   22  A    between atoms: _48  and  _49
REMARK   23  A    between atoms: _51  and  _53
REMARK   24  A    between atoms: _53  and  _54
REMARK   25  A    between atoms: _53  and  _56
REMARK   26  A    between atoms: _56  and  _57
REMARK   27  A    between atoms: _57  and  _58
REMARK   28  A    between atoms: _58  and  _59
REMARK   29  A    between atoms: _68  and  _70
REMARK   30  A    between atoms: _70  and  _71
REMARK   31  A    between atoms: _70  and  _73
REMARK   32  A    between atoms: _73  and  _74
REMARK   33  A    between atoms: _79  and  _81
REMARK   34  A    between atoms: _81  and  _82
REMARK   35  A    between atoms: _84  and  _86
REMARK   36  A    between atoms: _86  and  _87
REMARK   37  A    between atoms: _86  and  _89
REMARK   38  A    between atoms: _89  and  _90
REMARK   39  A    between atoms: _92  and  _94
REMARK   40  A    between atoms: _94  and  _95
REMARK   41  A    between atoms: _97  and  _99
REMARK   42  A    between atoms: _99  and  _100
REMARK   43  A    between atoms: _99  and  _102
REMARK   44  A    between atoms: _102  and  _103
REMARK   45  A    between atoms: _105  and  _107
REMARK   46  A    between atoms: _107  and  _108
REMARK   47  A    between atoms: _107  and  _110
REMARK   48  A    between atoms: _110  and  _111
REMARK   49  A    between atoms: _114  and  _116
REMARK   50  A    between atoms: _116  and  _117
REMARK   51  A    between atoms: _116  and  _119
REMARK   52  A    between atoms: _119  and  _120
REMARK   53  A    between atoms: _126  and  _128
REMARK   54  A    between atoms: _128  and  _129
REMARK   55  A    between atoms: _128  and  _131
REMARK   56  A    between atoms: _131  and  _132
REMARK   57  A    between atoms: _142  and  _144
REMARK   58  A    between atoms: _144  and  _145
REMARK   59  A    between atoms: _144  and  _147
REMARK   60  A    between atoms: _147  and  _148
REMARK   61  A    between atoms: _153  and  _154
REMARK   62  A    between atoms: _156  and  _158
REMARK   63  A    between atoms: _158  and  _159
REMARK   64  A    between atoms: _161  and  _163
REMARK   65  A    between atoms: _163  and  _164
REMARK   66  A    between atoms: _166  and  _168
REMARK   67  A    between atoms: _168  and  _169
REMARK   68  A    between atoms: _168  and  _171
REMARK   69  A    between atoms: _171  and  _172
REMARK   70  A    between atoms: _175  and  _177
REMARK   71  A    between atoms: _177  and  _178
REMARK   72  A    between atoms: _177  and  _180
REMARK   73  A    between atoms: _180  and  _181
REMARK   74  A    between atoms: _184  and  _186
REMARK   75  A    between atoms: _186  and  _187
REMARK   76  A    between atoms: _186  and  _189
REMARK   77  A    between atoms: _189  and  _190
REMARK   78  A    between atoms: _194  and  _195
REMARK   79  A    between atoms: _200  and  _202
REMARK   80  A    between atoms: _202  and  _203
REMARK   81  A    between atoms: _202  and  _205
REMARK   82  A    between atoms: _205  and  _206
REMARK   83  A    between atoms: _206  and  _207
REMARK   84  A    between atoms: _212  and  _214
REMARK   85  A    between atoms: _214  and  _215
REMARK   86  A    between atoms: _214  and  _217
REMARK   87  A    between atoms: _220  and  _222
REMARK   88  A    between atoms: _222  and  _223
REMARK   89  A    between atoms: _222  and  _225
REMARK   90  A    between atoms: _225  and  _226
REMARK   91  A    between atoms: _231  and  _232
REMARK   92  A    between atoms: _234  and  _236
REMARK   93  A    between atoms: _236  and  _237
REMARK   94  A    between atoms: _236  and  _239
REMARK   95  A    between atoms: _239  and  _240
REMARK   96  A    between atoms: _243  and  _245
REMARK   97  A    between atoms: _245  and  _246
REMARK   98  A    between atoms: _248  and  _250
REMARK   99  A    between atoms: _250  and  _251
REMARK  100  A    between atoms: _250  and  _253
REMARK  101  A    between atoms: _253  and  _254
REMARK  102  A    between atoms: _257  and  _259
REMARK  103  A    between atoms: _259  and  _260
REMARK  104  A    between atoms: _263  and  _265
REMARK  105  A    between atoms: _265  and  _266
REMARK  106  A    between atoms: _265  and  _268
REMARK  107  A    between atoms: _268  and  _269
REMARK  108  A    between atoms: _272  and  _274
REMARK  109  A    between atoms: _274  and  _275
REMARK  110  A    between atoms: _274  and  _277
REMARK  111  A    between atoms: _277  and  _278
REMARK  112  A    between atoms: _280  and  _282
REMARK  113  A    between atoms: _282  and  _283
REMARK  114  A    between atoms: _282  and  _285
REMARK  115  A    between atoms: _285  and  _286
REMARK  116  A    between atoms: _288  and  _290
REMARK  117  A    between atoms: _290  and  _291
REMARK  118  A    between atoms: _293  and  _295
REMARK  119  A    between atoms: _295  and  _296
REMARK  120  A    between atoms: _295  and  _298
REMARK  121  A    between atoms: _298  and  _299
REMARK  122  A    between atoms: _302  and  _304
REMARK  123  A    between atoms: _304  and  _305
REMARK  124  A    between atoms: _308  and  _310
REMARK  125  A    between atoms: _310  and  _311
REMARK  126  A    between atoms: _310  and  _313
REMARK  127  A    between atoms: _313  and  _314
REMARK  128  A    between atoms: _319  and  _320
REMARK  129  A    between atoms: _322  and  _324
REMARK  130  A    between atoms: _324  and  _325
REMARK  131  A    between atoms: _324  and  _327
REMARK  132  A    between atoms: _327  and  _328
REMARK  133  A    between atoms: _331  and  _333
REMARK  134  A    between atoms: _333  and  _334
REMARK  135  A    between atoms: _337  and  _339
REMARK  136  A    between atoms: _339  and  _340
REMARK  137  A    between atoms: _339  and  _342
REMARK  138  A    between atoms: _342  and  _343
REMARK  139  A    between atoms: _346  and  _348
REMARK  140  A    between atoms: _348  and  _349
REMARK  141  A    between atoms: _348  and  _351
REMARK  142  A    between atoms: _351  and  _352
REMARK  143  A    between atoms: _352  and  _353
REMARK  144  A    between atoms: _353  and  _354
REMARK  145  A    between atoms: _354  and  _355
REMARK  146  A    between atoms: _359  and  _361
REMARK  147  A    between atoms: _361  and  _362
REMARK  148  A    between atoms: _361  and  _364
REMARK  149  A    between atoms: _364  and  _365
REMARK  150  A    between atoms: _367  and  _369
REMARK  151  A    between atoms: _369  and  _370
REMARK  152  A    between atoms: _372  and  _374
REMARK  153  A    between atoms: _374  and  _375
REMARK  154  A    between atoms: _374  and  _377
REMARK  155  A    between atoms: _377  and  _378
REMARK  156  A    between atoms: _381  and  _383
REMARK  157  A    between atoms: _383  and  _384
REMARK  158  A    between atoms: _383  and  _386
REMARK  159  A    between atoms: _386  and  _387
REMARK  160  A    between atoms: _390  and  _392
REMARK  161  A    between atoms: _392  and  _393
REMARK  162  A    between atoms: _396  and  _398
REMARK  163  A    between atoms: _398  and  _399
REMARK  164  A    between atoms: _401  and  _403
REMARK  165  A    between atoms: _403  and  _404
REMARK  166  A    between atoms: _403  and  _406
REMARK  167  A    between atoms: _406  and  _407
REMARK  168  A    between atoms: _413  and  _415
REMARK  169  A    between atoms: _415  and  _416
REMARK  170  A    between atoms: _415  and  _418
REMARK  171  A    between atoms: _418  and  _419
REMARK  172  A    between atoms: _422  and  _424
REMARK  173  A    between atoms: _424  and  _425
REMARK  174  A    between atoms: _424  and  _427
REMARK  175  A    between atoms: _427  and  _428
REMARK  176  A    between atoms: _433  and  _435
REMARK  177  A    between atoms: _435  and  _436
REMARK  178  A    between atoms: _435  and  _438
REMARK  179  A    between atoms: _438  and  _439
REMARK  180  A    between atoms: _442  and  _444
REMARK  181  A    between atoms: _444  and  _445
REMARK  182  A    between atoms: _444  and  _447
REMARK  183  A    between atoms: _447  and  _448
REMARK  184  A    between atoms: _453  and  _454
REMARK  185  A    between atoms: _456  and  _458
REMARK  186  A    between atoms: _458  and  _459
REMARK  187  A    between atoms: _458  and  _461
REMARK  188  A    between atoms: _461  and  _462
REMARK  189  A    between atoms: _465  and  _467
REMARK  190  A    between atoms: _467  and  _468
REMARK  191  A    between atoms: _467  and  _470
REMARK  192  A    between atoms: _470  and  _471
REMARK  193  A    between atoms: _471  and  _472
REMARK  194  A    between atoms: _475  and  _477
REMARK  195  A    between atoms: _477  and  _478
REMARK  196  A    between atoms: _477  and  _480
REMARK  197  A    between atoms: _480  and  _481
REMARK  198  A    between atoms: _484  and  _486
REMARK  199  A    between atoms: _486  and  _487
REMARK  200  A    between atoms: _489  and  _491
REMARK  201  A    between atoms: _491  and  _492
REMARK  202  A    between atoms: _494  and  _496
REMARK  203  A    between atoms: _496  and  _497
REMARK  204  A    between atoms: _496  and  _499
REMARK  205  A    between atoms: _499  and  _500
REMARK  206  A    between atoms: _500  and  _501
REMARK  207  A    between atoms: _506  and  _508
REMARK  208  A    between atoms: _508  and  _509
REMARK  209  A    between atoms: _512  and  _514
REMARK  210  A    between atoms: _514  and  _515
REMARK  211  A    between atoms: _514  and  _517
REMARK  212  A    between atoms: _517  and  _518
REMARK  213  A    between atoms: _521  and  _523
REMARK  214  A    between atoms: _523  and  _524
REMARK  215  A    between atoms: _523  and  _526
REMARK  216  A    between atoms: _526  and  _527
REMARK  217  A    between atoms: _527  and  _528
REMARK  218  A    between atoms: _533  and  _535
REMARK  219  A    between atoms: _535  and  _536
REMARK  220  A    between atoms: _535  and  _538
REMARK  221  A    between atoms: _538  and  _539
REMARK  222  A    between atoms: _542  and  _544
REMARK  223  A    between atoms: _544  and  _545
REMARK  224  A    between atoms: _544  and  _547
REMARK  225  A    between atoms: _547  and  _548
REMARK  226  A    between atoms: _548  and  _549
REMARK  227  A    between atoms: _549  and  _550
REMARK                            x       y       z     vdW  Elec       q    Type
REMARK                         _______ _______ _______ _____ _____    ______ ____
ROOT
ATOM      1  O   HOH     1     -21.177 -10.927   9.238  0.00  0.00    +0.000 OA
ENDROOT
TORSDOF 0
REMARK  Name = ../refined-set-2016/4r75/4r75_pocket.pdb
REMARK  227 active torsions:
REMARK  status: ('A' for Active; 'I' for Inactive)
REMARK    1  A    between atoms: _1  and  _3
REMARK    2  A    between atoms: _3  and  _4
REMARK    3  A    between atoms: _3  and  _6
REMARK    4  A    between atoms: _8  and  _10
REMARK    5  A    between atoms: _10  and  _11
REMARK    6  A    between atoms: _10  and  _13
REMARK    7  A    between atoms: _13  and  _14
REMARK    8  A    between atoms: _16  and  _18
REMARK    9  A    between atoms: _18  and  _19
REMARK   10  A    between atoms: _22  and  _24
REMARK   11  A    between atoms: _24  and  _25
REMARK   12  A    between atoms: _24  and  _27
REMARK   13  A    between atoms: _27  and  _28
REMARK   14  A    between atoms: _31  and  _33
REMARK   15  A    between atoms: _33  and  _34
REMARK   16  A    between atoms: _33  and  _36
REMARK   17  A    between atoms: _36  and  _37
REMARK   18  A    between atoms: _42  and  _44
REMARK   19  A    between atoms: _44  and  _45
REMARK   20  A    between atoms: _44  and  _47
REMARK   21  A    between atoms: _47  and  _48
REMARK   22  A    between atoms: _48  and  _49
REMARK   23  A    between atoms: _51  and  _53
REMARK   24  A    between atoms: _53  and  _54
REMARK   25  A    between atoms: _53  and  _56
REMARK   26  A    between atoms: _56  and  _57
REMARK   27  A    between atoms: _57  and  _58
REMARK   28  A    between atoms: _58  and  _59
REMARK   29  A    between atoms: _68  and  _70
REMARK   30  A    between atoms: _70  and  _71
REMARK   31  A    between atoms: _70  and  _73
REMARK   32  A    between atoms: _73  and  _74
REMARK   33  A    between atoms: _79  and  _81
REMARK   34  A    between atoms: _81  and  _82
REMARK   35  A    between atoms: _84  and  _86
REMARK   36  A    between atoms: _86  and  _87
REMARK   37  A    between atoms: _86  and  _89
REMARK   38  A    between atoms: _89  and  _90
REMARK   39  A    between atoms: _92  and  _94
REMARK   40  A    between atoms: _94  and  _95
REMARK   41  A    between atoms: _97  and  _99
REMARK   42  A    between atoms: _99  and  _100
REMARK   43  A    between atoms: _99  and  _102
REMARK   44  A    between atoms: _102  and  _103
REMARK   45  A    between atoms: _105  and  _107
REMARK   46  A    between atoms: _107  and  _108
REMARK   47  A    between atoms: _107  and  _110
REMARK   48  A    between atoms: _110  and  _111
REMARK   49  A    between atoms: _114  and  _116
REMARK   50  A    between atoms: _116  and  _117
REMARK   51  A    between atoms: _116  and  _119
REMARK   52  A    between atoms: _119  and  _120
REMARK   53  A    between atoms: _126  and  _128
REMARK   54  A    between atoms: _128  and  _129
REMARK   55  A    between atoms: _128  and  _131
REMARK   56  A    between atoms: _131  and  _132
REMARK   57  A    between atoms: _142  and  _144
REMARK   58  A    between atoms: _144  and  _145
REMARK   59  A    between atoms: _144  and  _147
REMARK   60  A    between atoms: _147  and  _148
REMARK   61  A    between atoms: _153  and  _154
REMARK   62  A    between atoms: _156  and  _158
REMARK   63  A    between atoms: _158  and  _159
REMARK   64  A    between atoms: _161  and  _163
REMARK   65  A    between atoms: _163  and  _164
REMARK   66  A    between atoms: _166  and  _168
REMARK   67  A    between atoms: _168  and  _169
REMARK   68  A    between atoms: _168  and  _171
REMARK   69  A    between atoms: _171  and  _172
REMARK   70  A    between atoms: _175  and  _177
REMARK   71  A    between atoms: _177  and  _178
REMARK   72  A    between atoms: _177  and  _180
REMARK   73  A    between atoms: _180  and  _181
REMARK   74  A    between atoms: _184  and  _186
REMARK   75  A    between atoms: _186  and  _187
REMARK   76  A    between atoms: _186  and  _189
REMARK   77  A    between atoms: _189  and  _190
REMARK   78  A    between atoms: _194  and  _195
REMARK   79  A    between atoms: _200  and  _202
REMARK   80  A    between atoms: _202  and  _203
REMARK   81  A    between atoms: _202  and  _205
REMARK   82  A    between atoms: _205  and  _206
REMARK   83  A    between atoms: _206  and  _207
REMARK   84  A    between atoms: _212  and  _214
REMARK   85  A    between atoms: _214  and  _215
REMARK   86  A    between atoms: _214  and  _217
REMARK   87  A    between atoms: _220  and  _222
REMARK   88  A    between atoms: _222  and  _223
REMARK   89  A    between atoms: _222  and  _225
REMARK   90  A    between atoms: _225  and  _226
REMARK   91  A    between atoms: _231  and  _232
REMARK   92  A    between atoms: _234  and  _236
REMARK   93  A    between atoms: _236  and  _237
REMARK   94  A    between atoms: _236  and  _239
REMARK   95  A    between atoms: _239  and  _240
REMARK   96  A    between atoms: _243  and  _245
REMARK   97  A    between atoms: _245  and  _246
REMARK   98  A    between atoms: _248  and  _250
REMARK   99  A    between atoms: _250  and  _251
REMARK  100  A    between atoms: _250  and  _253
REMARK  101  A    between atoms: _253  and  _254
REMARK  102  A    between atoms: _257  and  _259
REMARK  103  A    between atoms: _259  and  _260
REMARK  104  A    between atoms: _263  and  _265
REMARK  105  A    between atoms: _265  and  _266
REMARK  106  A    between atoms: _265  and  _268
REMARK  107  A    between atoms: _268  and  _269
REMARK  108  A    between atoms: _272  and  _274
REMARK  109  A    between atoms: _274  and  _275
REMARK  110  A    between atoms: _274  and  _277
REMARK  111  A    between atoms: _277  and  _278
REMARK  112  A    between atoms: _280  and  _282
REMARK  113  A    between atoms: _282  and  _283
REMARK  114  A    between atoms: _282  and  _285
REMARK  115  A    between atoms: _285  and  _286
REMARK  116  A    between atoms: _288  and  _290
REMARK  117  A    between atoms: _290  and  _291
REMARK  118  A    between atoms: _293  and  _295
REMARK  119  A    between atoms: _295  and  _296
REMARK  120  A    between atoms: _295  and  _298
REMARK  121  A    between atoms: _298  and  _299
REMARK  122  A    between atoms: _302  and  _304
REMARK  123  A    between atoms: _304  and  _305
REMARK  124  A    between atoms: _308  and  _310
REMARK  125  A    between atoms: _310  and  _311
REMARK  126  A    between atoms: _310  and  _313
REMARK  127  A    between atoms: _313  and  _314
REMARK  128  A    between atoms: _319  and  _320
REMARK  129  A    between atoms: _322  and  _324
REMARK  130  A    between atoms: _324  and  _325
REMARK  131  A    between atoms: _324  and  _327
REMARK  132  A    between atoms: _327  and  _328
REMARK  133  A    between atoms: _331  and  _333
REMARK  134  A    between atoms: _333  and  _334
REMARK  135  A    between atoms: _337  and  _339
REMARK  136  A    between atoms: _339  and  _340
REMARK  137  A    between atoms: _339  and  _342
REMARK  138  A    between atoms: _342  and  _343
REMARK  139  A    between atoms: _346  and  _348
REMARK  140  A    between atoms: _348  and  _349
REMARK  141  A    between atoms: _348  and  _351
REMARK  142  A    between atoms: _351  and  _352
REMARK  143  A    between atoms: _352  and  _353
REMARK  144  A    between atoms: _353  and  _354
REMARK  145  A    between atoms: _354  and  _355
REMARK  146  A    between atoms: _359  and  _361
REMARK  147  A    between atoms: _361  and  _362
REMARK  148  A    between atoms: _361  and  _364
REMARK  149  A    between atoms: _364  and  _365
REMARK  150  A    between atoms: _367  and  _369
REMARK  151  A    between atoms: _369  and  _370
REMARK  152  A    between atoms: _372  and  _374
REMARK  153  A    between atoms: _374  and  _375
REMARK  154  A    between atoms: _374  and  _377
REMARK  155  A    between atoms: _377  and  _378
REMARK  156  A    between atoms: _381  and  _383
REMARK  157  A    between atoms: _383  and  _384
REMARK  158  A    between atoms: _383  and  _386
REMARK  159  A    between atoms: _386  and  _387
REMARK  160  A    between atoms: _390  and  _392
REMARK  161  A    between atoms: _392  and  _393
REMARK  162  A    between atoms: _396  and  _398
REMARK  163  A    between atoms: _398  and  _399
REMARK  164  A    between atoms: _401  and  _403
REMARK  165  A    between atoms: _403  and  _404
REMARK  166  A    between atoms: _403  and  _406
REMARK  167  A    between atoms: _406  and  _407
REMARK  168  A    between atoms: _413  and  _415
REMARK  169  A    between atoms: _415  and  _416
REMARK  170  A    between atoms: _415  and  _418
REMARK  171  A    between atoms: _418  and  _419
REMARK  172  A    between atoms: _422  and  _424
REMARK  173  A    between atoms: _424  and  _425
REMARK  174  A    between atoms: _424  and  _427
REMARK  175  A    between atoms: _427  and  _428
REMARK  176  A    between atoms: _433  and  _435
REMARK  177  A    between atoms: _435  and  _436
REMARK  178  A    between atoms: _435  and  _438
REMARK  179  A    between atoms: _438  and  _439
REMARK  180  A    between atoms: _442  and  _444
REMARK  181  A    between atoms: _444  and  _445
REMARK  182  A    between atoms: _444  and  _447
REMARK  183  A    between atoms: _447  and  _448
REMARK  184  A    between atoms: _453  and  _454
REMARK  185  A    between atoms: _456  and  _458
REMARK  186  A    between atoms: _458  and  _459
REMARK  187  A    between atoms: _458  and  _461
REMARK  188  A    between atoms: _461  and  _462
REMARK  189  A    between atoms: _465  and  _467
REMARK  190  A    between atoms: _467  and  _468
REMARK  191  A    between atoms: _467  and  _470
REMARK  192  A    between atoms: _470  and  _471
REMARK  193  A    between atoms: _471  and  _472
REMARK  194  A    between atoms: _475  and  _477
REMARK  195  A    between atoms: _477  and  _478
REMARK  196  A    between atoms: _477  and  _480
REMARK  197  A    between atoms: _480  and  _481
REMARK  198  A    between atoms: _484  and  _486
REMARK  199  A    between atoms: _486  and  _487
REMARK  200  A    between atoms: _489  and  _491
REMARK  201  A    between atoms: _491  and  _492
REMARK  202  A    between atoms: _494  and  _496
REMARK  203  A    between atoms: _496  and  _497
REMARK  204  A    between atoms: _496  and  _499
REMARK  205  A    between atoms: _499  and  _500
REMARK  206  A    between atoms: _500  and  _501
REMARK  207  A    between atoms: _506  and  _508
REMARK  208  A    between atoms: _508  and  _509
REMARK  209  A    between atoms: _512  and  _514
REMARK  210  A    between atoms: _514  and  _515
REMARK  211  A    between atoms: _514  and  _517
REMARK  212  A    between atoms: _517  and  _518
REMARK  213  A    between atoms: _521  and  _523
REMARK  214  A    between atoms: _523  and  _524
REMARK  215  A    between atoms: _523  and  _526
REMARK  216  A    between atoms: _526  and  _527
REMARK  217  A    between atoms: _527  and  _528
REMARK  218  A    between atoms: _533  and  _535
REMARK  219  A    between atoms: _535  and  _536
REMARK  220  A    between atoms: _535  and  _538
REMARK  221  A    between atoms: _538  and  _539
REMARK  222  A    between atoms: _542  and  _544
REMARK  223  A    between atoms: _544  and  _545
REMARK  224  A    between atoms: _544  and  _547
REMARK  225  A    between atoms: _547  and  _548
REMARK  226  A    between atoms: _548  and  _549
REMARK  227  A    between atoms: _549  and  _550
REMARK                            x       y       z     vdW  Elec       q    Type
REMARK                         _______ _______ _______ _____ _____    ______ ____
ROOT
ATOM      1  O   HOH     1      -3.453  -8.045   5.868  0.00  0.00    +0.000 OA
ENDROOT
TORSDOF 0
REMARK  Name = ../refined-set-2016/4r75/4r75_pocket.pdb
REMARK  227 active torsions:
REMARK  status: ('A' for Active; 'I' for Inactive)
REMARK    1  A    between atoms: _1  and  _3
REMARK    2  A    between atoms: _3  and  _4
REMARK    3  A    between atoms: _3  and  _6
REMARK    4  A    between atoms: _8  and  _10
REMARK    5  A    between atoms: _10  and  _11
REMARK    6  A    between atoms: _10  and  _13
REMARK    7  A    between atoms: _13  and  _14
REMARK    8  A    between atoms: _16  and  _18
REMARK    9  A    between atoms: _18  and  _19
REMARK   10  A    between atoms: _22  and  _24
REMARK   11  A    between atoms: _24  and  _25
REMARK   12  A    between atoms: _24  and  _27
REMARK   13  A    between atoms: _27  and  _28
REMARK   14  A    between atoms: _31  and  _33
REMARK   15  A    between atoms: _33  and  _34
REMARK   16  A    between atoms: _33  and  _36
REMARK   17  A    between atoms: _36  and  _37
REMARK   18  A    between atoms: _42  and  _44
REMARK   19  A    between atoms: _44  and  _45
REMARK   20  A    between atoms: _44  and  _47
REMARK   21  A    between atoms: _47  and  _48
REMARK   22  A    between atoms: _48  and  _49
REMARK   23  A    between atoms: _51  and  _53
REMARK   24  A    between atoms: _53  and  _54
REMARK   25  A    between atoms: _53  and  _56
REMARK   26  A    between atoms: _56  and  _57
REMARK   27  A    between atoms: _57  and  _58
REMARK   28  A    between atoms: _58  and  _59
REMARK   29  A    between atoms: _68  and  _70
REMARK   30  A    between atoms: _70  and  _71
REMARK   31  A    between atoms: _70  and  _73
REMARK   32  A    between atoms: _73  and  _74
REMARK   33  A    between atoms: _79  and  _81
REMARK   34  A    between atoms: _81  and  _82
REMARK   35  A    between atoms: _84  and  _86
REMARK   36  A    between atoms: _86  and  _87
REMARK   37  A    between atoms: _86  and  _89
REMARK   38  A    between atoms: _89  and  _90
REMARK   39  A    between atoms: _92  and  _94
REMARK   40  A    between atoms: _94  and  _95
REMARK   41  A    between atoms: _97  and  _99
REMARK   42  A    between atoms: _99  and  _100
REMARK   43  A    between atoms: _99  and  _102
REMARK   44  A    between atoms: _102  and  _103
REMARK   45  A    between atoms: _105  and  _107
REMARK   46  A    between atoms: _107  and  _108
REMARK   47  A    between atoms: _107  and  _110
REMARK   48  A    between atoms: _110  and  _111
REMARK   49  A    between atoms: _114  and  _116
REMARK   50  A    between atoms: _116  and  _117
REMARK   51  A    between atoms: _116  and  _119
REMARK   52  A    between atoms: _119  and  _120
REMARK   53  A    between atoms: _126  and  _128
REMARK   54  A    between atoms: _128  and  _129
REMARK   55  A    between atoms: _128  and  _131
REMARK   56  A    between atoms: _131  and  _132
REMARK   57  A    between atoms: _142  and  _144
REMARK   58  A    between atoms: _144  and  _145
REMARK   59  A    between atoms: _144  and  _147
REMARK   60  A    between atoms: _147  and  _148
REMARK   61  A    between atoms: _153  and  _154
REMARK   62  A    between atoms: _156  and  _158
REMARK   63  A    between atoms: _158  and  _159
REMARK   64  A    between atoms: _161  and  _163
REMARK   65  A    between atoms: _163  and  _164
REMARK   66  A    between atoms: _166  and  _168
REMARK   67  A    between atoms: _168  and  _169
REMARK   68  A    between atoms: _168  and  _171
REMARK   69  A    between atoms: _171  and  _172
REMARK   70  A    between atoms: _175  and  _177
REMARK   71  A    between atoms: _177  and  _178
REMARK   72  A    between atoms: _177  and  _180
REMARK   73  A    between atoms: _180  and  _181
REMARK   74  A    between atoms: _184  and  _186
REMARK   75  A    between atoms: _186  and  _187
REMARK   76  A    between atoms: _186  and  _189
REMARK   77  A    between atoms: _189  and  _190
REMARK   78  A    between atoms: _194  and  _195
REMARK   79  A    between atoms: _200  and  _202
REMARK   80  A    between atoms: _202  and  _203
REMARK   81  A    between atoms: _202  and  _205
REMARK   82  A    between atoms: _205  and  _206
REMARK   83  A    between atoms: _206  and  _207
REMARK   84  A    between atoms: _212  and  _214
REMARK   85  A    between atoms: _214  and  _215
REMARK   86  A    between atoms: _214  and  _217
REMARK   87  A    between atoms: _220  and  _222
REMARK   88  A    between atoms: _222  and  _223
REMARK   89  A    between atoms: _222  and  _225
REMARK   90  A    between atoms: _225  and  _226
REMARK   91  A    between atoms: _231  and  _232
REMARK   92  A    between atoms: _234  and  _236
REMARK   93  A    between atoms: _236  and  _237
REMARK   94  A    between atoms: _236  and  _239
REMARK   95  A    between atoms: _239  and  _240
REMARK   96  A    between atoms: _243  and  _245
REMARK   97  A    between atoms: _245  and  _246
REMARK   98  A    between atoms: _248  and  _250
REMARK   99  A    between atoms: _250  and  _251
REMARK  100  A    between atoms: _250  and  _253
REMARK  101  A    between atoms: _253  and  _254
REMARK  102  A    between atoms: _257  and  _259
REMARK  103  A    between atoms: _259  and  _260
REMARK  104  A    between atoms: _263  and  _265
REMARK  105  A    between atoms: _265  and  _266
REMARK  106  A    between atoms: _265  and  _268
REMARK  107  A    between atoms: _268  and  _269
REMARK  108  A    between atoms: _272  and  _274
REMARK  109  A    between atoms: _274  and  _275
REMARK  110  A    between atoms: _274  and  _277
REMARK  111  A    between atoms: _277  and  _278
REMARK  112  A    between atoms: _280  and  _282
REMARK  113  A    between atoms: _282  and  _283
REMARK  114  A    between atoms: _282  and  _285
REMARK  115  A    between atoms: _285  and  _286
REMARK  116  A    between atoms: _288  and  _290
REMARK  117  A    between atoms: _290  and  _291
REMARK  118  A    between atoms: _293  and  _295
REMARK  119  A    between atoms: _295  and  _296
REMARK  120  A    between atoms: _295  and  _298
REMARK  121  A    between atoms: _298  and  _299
REMARK  122  A    between atoms: _302  and  _304
REMARK  123  A    between atoms: _304  and  _305
REMARK  124  A    between atoms: _308  and  _310
REMARK  125  A    between atoms: _310  and  _311
REMARK  126  A    between atoms: _310  and  _313
REMARK  127  A    between atoms: _313  and  _314
REMARK  128  A    between atoms: _319  and  _320
REMARK  129  A    between atoms: _322  and  _324
REMARK  130  A    between atoms: _324  and  _325
REMARK  131  A    between atoms: _324  and  _327
REMARK  132  A    between atoms: _327  and  _328
REMARK  133  A    between atoms: _331  and  _333
REMARK  134  A    between atoms: _333  and  _334
REMARK  135  A    between atoms: _337  and  _339
REMARK  136  A    between atoms: _339  and  _340
REMARK  137  A    between atoms: _339  and  _342
REMARK  138  A    between atoms: _342  and  _343
REMARK  139  A    between atoms: _346  and  _348
REMARK  140  A    between atoms: _348  and  _349
REMARK  141  A    between atoms: _348  and  _351
REMARK  142  A    between atoms: _351  and  _352
REMARK  143  A    between atoms: _352  and  _353
REMARK  144  A    between atoms: _353  and  _354
REMARK  145  A    between atoms: _354  and  _355
REMARK  146  A    between atoms: _359  and  _361
REMARK  147  A    between atoms: _361  and  _362
REMARK  148  A    between atoms: _361  and  _364
REMARK  149  A    between atoms: _364  and  _365
REMARK  150  A    between atoms: _367  and  _369
REMARK  151  A    between atoms: _369  and  _370
REMARK  152  A    between atoms: _372  and  _374
REMARK  153  A    between atoms: _374  and  _375
REMARK  154  A    between atoms: _374  and  _377
REMARK  155  A    between atoms: _377  and  _378
REMARK  156  A    between atoms: _381  and  _383
REMARK  157  A    between atoms: _383  and  _384
REMARK  158  A    between atoms: _383  and  _386
REMARK  159  A    between atoms: _386  and  _387
REMARK  160  A    between atoms: _390  and  _392
REMARK  161  A    between atoms: _392  and  _393
REMARK  162  A    between atoms: _396  and  _398
REMARK  163  A    between atoms: _398  and  _399
REMARK  164  A    between atoms: _401  and  _403
REMARK  165  A    between atoms: _403  and  _404
REMARK  166  A    between atoms: _403  and  _406
REMARK  167  A    between atoms: _406  and  _407
REMARK  168  A    between atoms: _413  and  _415
REMARK  169  A    between atoms: _415  and  _416
REMARK  170  A    between atoms: _415  and  _418
REMARK  171  A    between atoms: _418  and  _419
REMARK  172  A    between atoms: _422  and  _424
REMARK  173  A    between atoms: _424  and  _425
REMARK  174  A    between atoms: _424  and  _427
REMARK  175  A    between atoms: _427  and  _428
REMARK  176  A    between atoms: _433  and  _435
REMARK  177  A    between atoms: _435  and  _436
REMARK  178  A    between atoms: _435  and  _438
REMARK  179  A    between atoms: _438  and  _439
REMARK  180  A    between atoms: _442  and  _444
REMARK  181  A    between atoms: _444  and  _445
REMARK  182  A    between atoms: _444  and  _447
REMARK  183  A    between atoms: _447  and  _448
REMARK  184  A    between atoms: _453  and  _454
REMARK  185  A    between atoms: _456  and  _458
REMARK  186  A    between atoms: _458  and  _459
REMARK  187  A    between atoms: _458  and  _461
REMARK  188  A    between atoms: _461  and  _462
REMARK  189  A    between atoms: _465  and  _467
REMARK  190  A    between atoms: _467  and  _468
REMARK  191  A    between atoms: _467  and  _470
REMARK  192  A    between atoms: _470  and  _471
REMARK  193  A    between atoms: _471  and  _472
REMARK  194  A    between atoms: _475  and  _477
REMARK  195  A    between atoms: _477  and  _478
REMARK  196  A    between atoms: _477  and  _480
REMARK  197  A    between atoms: _480  and  _481
REMARK  198  A    between atoms: _484  and  _486
REMARK  199  A    between atoms: _486  and  _487
REMARK  200  A    between atoms: _489  and  _491
REMARK  201  A    between atoms: _491  and  _492
REMARK  202  A    between atoms: _494  and  _496
REMARK  203  A    between atoms: _496  and  _497
REMARK  204  A    between atoms: _496  and  _499
REMARK  205  A    between atoms: _499  and  _500
REMARK  206  A    between atoms: _500  and  _501
REMARK  207  A    between atoms: _506  and  _508
REMARK  208  A    between atoms: _508  and  _509
REMARK  209  A    between atoms: _512  and  _514
REMARK  210  A    between atoms: _514  and  _515
REMARK  211  A    between atoms: _514  and  _517
REMARK  212  A    between atoms: _517  and  _518
REMARK  213  A    between atoms: _521  and  _523
REMARK  214  A    between atoms: _523  and  _524
REMARK  215  A    between atoms: _523  and  _526
REMARK  216  A    between atoms: _526  and  _527
REMARK  217  A    between atoms: _527  and  _528
REMARK  218  A    between atoms: _533  and  _535
REMARK  219  A    between atoms: _535  and  _536
REMARK  220  A    between atoms: _535  and  _538
REMARK  221  A    between atoms: _538  and  _539
REMARK  222  A    between atoms: _542  and  _544
REMARK  223  A    between atoms: _544  and  _545
REMARK  224  A    between atoms: _544  and  _547
REMARK  225  A    between atoms: _547  and  _548
REMARK  226  A    between atoms: _548  and  _549
REMARK  227  A    between atoms: _549  and  _550
REMARK                            x       y       z     vdW  Elec       q    Type
REMARK                         _______ _______ _______ _____ _____    ______ ____
ROOT
ATOM      1  O   HOH     1     -21.283 -11.723  15.468  0.00  0.00    +0.000 OA
ENDROOT
TORSDOF 0
REMARK  Name = ../refined-set-2016/4r75/4r75_pocket.pdb
REMARK  227 active torsions:
REMARK  status: ('A' for Active; 'I' for Inactive)
REMARK    1  A    between atoms: _1  and  _3
REMARK    2  A    between atoms: _3  and  _4
REMARK    3  A    between atoms: _3  and  _6
REMARK    4  A    between atoms: _8  and  _10
REMARK    5  A    between atoms: _10  and  _11
REMARK    6  A    between atoms: _10  and  _13
REMARK    7  A    between atoms: _13  and  _14
REMARK    8  A    between atoms: _16  and  _18
REMARK    9  A    between atoms: _18  and  _19
REMARK   10  A    between atoms: _22  and  _24
REMARK   11  A    between atoms: _24  and  _25
REMARK   12  A    between atoms: _24  and  _27
REMARK   13  A    between atoms: _27  and  _28
REMARK   14  A    between atoms: _31  and  _33
REMARK   15  A    between atoms: _33  and  _34
REMARK   16  A    between atoms: _33  and  _36
REMARK   17  A    between atoms: _36  and  _37
REMARK   18  A    between atoms: _42  and  _44
REMARK   19  A    between atoms: _44  and  _45
REMARK   20  A    between atoms: _44  and  _47
REMARK   21  A    between atoms: _47  and  _48
REMARK   22  A    between atoms: _48  and  _49
REMARK   23  A    between atoms: _51  and  _53
REMARK   24  A    between atoms: _53  and  _54
REMARK   25  A    between atoms: _53  and  _56
REMARK   26  A    between atoms: _56  and  _57
REMARK   27  A    between atoms: _57  and  _58
REMARK   28  A    between atoms: _58  and  _59
REMARK   29  A    between atoms: _68  and  _70
REMARK   30  A    between atoms: _70  and  _71
REMARK   31  A    between atoms: _70  and  _73
REMARK   32  A    between atoms: _73  and  _74
REMARK   33  A    between atoms: _79  and  _81
REMARK   34  A    between atoms: _81  and  _82
REMARK   35  A    between atoms: _84  and  _86
REMARK   36  A    between atoms: _86  and  _87
REMARK   37  A    between atoms: _86  and  _89
REMARK   38  A    between atoms: _89  and  _90
REMARK   39  A    between atoms: _92  and  _94
REMARK   40  A    between atoms: _94  and  _95
REMARK   41  A    between atoms: _97  and  _99
REMARK   42  A    between atoms: _99  and  _100
REMARK   43  A    between atoms: _99  and  _102
REMARK   44  A    between atoms: _102  and  _103
REMARK   45  A    between atoms: _105  and  _107
REMARK   46  A    between atoms: _107  and  _108
REMARK   47  A    between atoms: _107  and  _110
REMARK   48  A    between atoms: _110  and  _111
REMARK   49  A    between atoms: _114  and  _116
REMARK   50  A    between atoms: _116  and  _117
REMARK   51  A    between atoms: _116  and  _119
REMARK   52  A    between atoms: _119  and  _120
REMARK   53  A    between atoms: _126  and  _128
REMARK   54  A    between atoms: _128  and  _129
REMARK   55  A    between atoms: _128  and  _131
REMARK   56  A    between atoms: _131  and  _132
REMARK   57  A    between atoms: _142  and  _144
REMARK   58  A    between atoms: _144  and  _145
REMARK   59  A    between atoms: _144  and  _147
REMARK   60  A    between atoms: _147  and  _148
REMARK   61  A    between atoms: _153  and  _154
REMARK   62  A    between atoms: _156  and  _158
REMARK   63  A    between atoms: _158  and  _159
REMARK   64  A    between atoms: _161  and  _163
REMARK   65  A    between atoms: _163  and  _164
REMARK   66  A    between atoms: _166  and  _168
REMARK   67  A    between atoms: _168  and  _169
REMARK   68  A    between atoms: _168  and  _171
REMARK   69  A    between atoms: _171  and  _172
REMARK   70  A    between atoms: _175  and  _177
REMARK   71  A    between atoms: _177  and  _178
REMARK   72  A    between atoms: _177  and  _180
REMARK   73  A    between atoms: _180  and  _181
REMARK   74  A    between atoms: _184  and  _186
REMARK   75  A    between atoms: _186  and  _187
REMARK   76  A    between atoms: _186  and  _189
REMARK   77  A    between atoms: _189  and  _190
REMARK   78  A    between atoms: _194  and  _195
REMARK   79  A    between atoms: _200  and  _202
REMARK   80  A    between atoms: _202  and  _203
REMARK   81  A    between atoms: _202  and  _205
REMARK   82  A    between atoms: _205  and  _206
REMARK   83  A    between atoms: _206  and  _207
REMARK   84  A    between atoms: _212  and  _214
REMARK   85  A    between atoms: _214  and  _215
REMARK   86  A    between atoms: _214  and  _217
REMARK   87  A    between atoms: _220  and  _222
REMARK   88  A    between atoms: _222  and  _223
REMARK   89  A    between atoms: _222  and  _225
REMARK   90  A    between atoms: _225  and  _226
REMARK   91  A    between atoms: _231  and  _232
REMARK   92  A    between atoms: _234  and  _236
REMARK   93  A    between atoms: _236  and  _237
REMARK   94  A    between atoms: _236  and  _239
REMARK   95  A    between atoms: _239  and  _240
REMARK   96  A    between atoms: _243  and  _245
REMARK   97  A    between atoms: _245  and  _246
REMARK   98  A    between atoms: _248  and  _250
REMARK   99  A    between atoms: _250  and  _251
REMARK  100  A    between atoms: _250  and  _253
REMARK  101  A    between atoms: _253  and  _254
REMARK  102  A    between atoms: _257  and  _259
REMARK  103  A    between atoms: _259  and  _260
REMARK  104  A    between atoms: _263  and  _265
REMARK  105  A    between atoms: _265  and  _266
REMARK  106  A    between atoms: _265  and  _268
REMARK  107  A    between atoms: _268  and  _269
REMARK  108  A    between atoms: _272  and  _274
REMARK  109  A    between atoms: _274  and  _275
REMARK  110  A    between atoms: _274  and  _277
REMARK  111  A    between atoms: _277  and  _278
REMARK  112  A    between atoms: _280  and  _282
REMARK  113  A    between atoms: _282  and  _283
REMARK  114  A    between atoms: _282  and  _285
REMARK  115  A    between atoms: _285  and  _286
REMARK  116  A    between atoms: _288  and  _290
REMARK  117  A    between atoms: _290  and  _291
REMARK  118  A    between atoms: _293  and  _295
REMARK  119  A    between atoms: _295  and  _296
REMARK  120  A    between atoms: _295  and  _298
REMARK  121  A    between atoms: _298  and  _299
REMARK  122  A    between atoms: _302  and  _304
REMARK  123  A    between atoms: _304  and  _305
REMARK  124  A    between atoms: _308  and  _310
REMARK  125  A    between atoms: _310  and  _311
REMARK  126  A    between atoms: _310  and  _313
REMARK  127  A    between atoms: _313  and  _314
REMARK  128  A    between atoms: _319  and  _320
REMARK  129  A    between atoms: _322  and  _324
REMARK  130  A    between atoms: _324  and  _325
REMARK  131  A    between atoms: _324  and  _327
REMARK  132  A    between atoms: _327  and  _328
REMARK  133  A    between atoms: _331  and  _333
REMARK  134  A    between atoms: _333  and  _334
REMARK  135  A    between atoms: _337  and  _339
REMARK  136  A    between atoms: _339  and  _340
REMARK  137  A    between atoms: _339  and  _342
REMARK  138  A    between atoms: _342  and  _343
REMARK  139  A    between atoms: _346  and  _348
REMARK  140  A    between atoms: _348  and  _349
REMARK  141  A    between atoms: _348  and  _351
REMARK  142  A    between atoms: _351  and  _352
REMARK  143  A    between atoms: _352  and  _353
REMARK  144  A    between atoms: _353  and  _354
REMARK  145  A    between atoms: _354  and  _355
REMARK  146  A    between atoms: _359  and  _361
REMARK  147  A    between atoms: _361  and  _362
REMARK  148  A    between atoms: _361  and  _364
REMARK  149  A    between atoms: _364  and  _365
REMARK  150  A    between atoms: _367  and  _369
REMARK  151  A    between atoms: _369  and  _370
REMARK  152  A    between atoms: _372  and  _374
REMARK  153  A    between atoms: _374  and  _375
REMARK  154  A    between atoms: _374  and  _377
REMARK  155  A    between atoms: _377  and  _378
REMARK  156  A    between atoms: _381  and  _383
REMARK  157  A    between atoms: _383  and  _384
REMARK  158  A    between atoms: _383  and  _386
REMARK  159  A    between atoms: _386  and  _387
REMARK  160  A    between atoms: _390  and  _392
REMARK  161  A    between atoms: _392  and  _393
REMARK  162  A    between atoms: _396  and  _398
REMARK  163  A    between atoms: _398  and  _399
REMARK  164  A    between atoms: _401  and  _403
REMARK  165  A    between atoms: _403  and  _404
REMARK  166  A    between atoms: _403  and  _406
REMARK  167  A    between atoms: _406  and  _407
REMARK  168  A    between atoms: _413  and  _415
REMARK  169  A    between atoms: _415  and  _416
REMARK  170  A    between atoms: _415  and  _418
REMARK  171  A    between atoms: _418  and  _419
REMARK  172  A    between atoms: _422  and  _424
REMARK  173  A    between atoms: _424  and  _425
REMARK  174  A    between atoms: _424  and  _427
REMARK  175  A    between atoms: _427  and  _428
REMARK  176  A    between atoms: _433  and  _435
REMARK  177  A    between atoms: _435  and  _436
REMARK  178  A    between atoms: _435  and  _438
REMARK  179  A    between atoms: _438  and  _439
REMARK  180  A    between atoms: _442  and  _444
REMARK  181  A    between atoms: _444  and  _445
REMARK  182  A    between atoms: _444  and  _447
REMARK  183  A    between atoms: _447  and  _448
REMARK  184  A    between atoms: _453  and  _454
REMARK  185  A    between atoms: _456  and  _458
REMARK  186  A    between atoms: _458  and  _459
REMARK  187  A    between atoms: _458  and  _461
REMARK  188  A    between atoms: _461  and  _462
REMARK  189  A    between atoms: _465  and  _467
REMARK  190  A    between atoms: _467  and  _468
REMARK  191  A    between atoms: _467  and  _470
REMARK  192  A    between atoms: _470  and  _471
REMARK  193  A    between atoms: _471  and  _472
REMARK  194  A    between atoms: _475  and  _477
REMARK  195  A    between atoms: _477  and  _478
REMARK  196  A    between atoms: _477  and  _480
REMARK  197  A    between atoms: _480  and  _481
REMARK  198  A    between atoms: _484  and  _486
REMARK  199  A    between atoms: _486  and  _487
REMARK  200  A    between atoms: _489  and  _491
REMARK  201  A    between atoms: _491  and  _492
REMARK  202  A    between atoms: _494  and  _496
REMARK  203  A    between atoms: _496  and  _497
REMARK  204  A    between atoms: _496  and  _499
REMARK  205  A    between atoms: _499  and  _500
REMARK  206  A    between atoms: _500  and  _501
REMARK  207  A    between atoms: _506  and  _508
REMARK  208  A    between atoms: _508  and  _509
REMARK  209  A    between atoms: _512  and  _514
REMARK  210  A    between atoms: _514  and  _515
REMARK  211  A    between atoms: _514  and  _517
REMARK  212  A    between atoms: _517  and  _518
REMARK  213  A    between atoms: _521  and  _523
REMARK  214  A    between atoms: _523  and  _524
REMARK  215  A    between atoms: _523  and  _526
REMARK  216  A    between atoms: _526  and  _527
REMARK  217  A    between atoms: _527  and  _528
REMARK  218  A    between atoms: _533  and  _535
REMARK  219  A    between atoms: _535  and  _536
REMARK  220  A    between atoms: _535  and  _538
REMARK  221  A    between atoms: _538  and  _539
REMARK  222  A    between atoms: _542  and  _544
REMARK  223  A    between atoms: _544  and  _545
REMARK  224  A    between atoms: _544  and  _547
REMARK  225  A    between atoms: _547  and  _548
REMARK  226  A    between atoms: _548  and  _549
REMARK  227  A    between atoms: _549  and  _550
REMARK                            x       y       z     vdW  Elec       q    Type
REMARK                         _______ _______ _______ _____ _____    ______ ____
ROOT
ATOM      1  O   HOH     1     -19.527 -15.982  14.629  0.00  0.00    +0.000 OA
ENDROOT
TORSDOF 0
REMARK  Name = ../refined-set-2016/4r75/4r75_pocket.pdb
REMARK  227 active torsions:
REMARK  status: ('A' for Active; 'I' for Inactive)
REMARK    1  A    between atoms: _1  and  _3
REMARK    2  A    between atoms: _3  and  _4
REMARK    3  A    between atoms: _3  and  _6
REMARK    4  A    between atoms: _8  and  _10
REMARK    5  A    between atoms: _10  and  _11
REMARK    6  A    between atoms: _10  and  _13
REMARK    7  A    between atoms: _13  and  _14
REMARK    8  A    between atoms: _16  and  _18
REMARK    9  A    between atoms: _18  and  _19
REMARK   10  A    between atoms: _22  and  _24
REMARK   11  A    between atoms: _24  and  _25
REMARK   12  A    between atoms: _24  and  _27
REMARK   13  A    between atoms: _27  and  _28
REMARK   14  A    between atoms: _31  and  _33
REMARK   15  A    between atoms: _33  and  _34
REMARK   16  A    between atoms: _33  and  _36
REMARK   17  A    between atoms: _36  and  _37
REMARK   18  A    between atoms: _42  and  _44
REMARK   19  A    between atoms: _44  and  _45
REMARK   20  A    between atoms: _44  and  _47
REMARK   21  A    between atoms: _47  and  _48
REMARK   22  A    between atoms: _48  and  _49
REMARK   23  A    between atoms: _51  and  _53
REMARK   24  A    between atoms: _53  and  _54
REMARK   25  A    between atoms: _53  and  _56
REMARK   26  A    between atoms: _56  and  _57
REMARK   27  A    between atoms: _57  and  _58
REMARK   28  A    between atoms: _58  and  _59
REMARK   29  A    between atoms: _68  and  _70
REMARK   30  A    between atoms: _70  and  _71
REMARK   31  A    between atoms: _70  and  _73
REMARK   32  A    between atoms: _73  and  _74
REMARK   33  A    between atoms: _79  and  _81
REMARK   34  A    between atoms: _81  and  _82
REMARK   35  A    between atoms: _84  and  _86
REMARK   36  A    between atoms: _86  and  _87
REMARK   37  A    between atoms: _86  and  _89
REMARK   38  A    between atoms: _89  and  _90
REMARK   39  A    between atoms: _92  and  _94
REMARK   40  A    between atoms: _94  and  _95
REMARK   41  A    between atoms: _97  and  _99
REMARK   42  A    between atoms: _99  and  _100
REMARK   43  A    between atoms: _99  and  _102
REMARK   44  A    between atoms: _102  and  _103
REMARK   45  A    between atoms: _105  and  _107
REMARK   46  A    between atoms: _107  and  _108
REMARK   47  A    between atoms: _107  and  _110
REMARK   48  A    between atoms: _110  and  _111
REMARK   49  A    between atoms: _114  and  _116
REMARK   50  A    between atoms: _116  and  _117
REMARK   51  A    between atoms: _116  and  _119
REMARK   52  A    between atoms: _119  and  _120
REMARK   53  A    between atoms: _126  and  _128
REMARK   54  A    between atoms: _128  and  _129
REMARK   55  A    between atoms: _128  and  _131
REMARK   56  A    between atoms: _131  and  _132
REMARK   57  A    between atoms: _142  and  _144
REMARK   58  A    between atoms: _144  and  _145
REMARK   59  A    between atoms: _144  and  _147
REMARK   60  A    between atoms: _147  and  _148
REMARK   61  A    between atoms: _153  and  _154
REMARK   62  A    between atoms: _156  and  _158
REMARK   63  A    between atoms: _158  and  _159
REMARK   64  A    between atoms: _161  and  _163
REMARK   65  A    between atoms: _163  and  _164
REMARK   66  A    between atoms: _166  and  _168
REMARK   67  A    between atoms: _168  and  _169
REMARK   68  A    between atoms: _168  and  _171
REMARK   69  A    between atoms: _171  and  _172
REMARK   70  A    between atoms: _175  and  _177
REMARK   71  A    between atoms: _177  and  _178
REMARK   72  A    between atoms: _177  and  _180
REMARK   73  A    between atoms: _180  and  _181
REMARK   74  A    between atoms: _184  and  _186
REMARK   75  A    between atoms: _186  and  _187
REMARK   76  A    between atoms: _186  and  _189
REMARK   77  A    between atoms: _189  and  _190
REMARK   78  A    between atoms: _194  and  _195
REMARK   79  A    between atoms: _200  and  _202
REMARK   80  A    between atoms: _202  and  _203
REMARK   81  A    between atoms: _202  and  _205
REMARK   82  A    between atoms: _205  and  _206
REMARK   83  A    between atoms: _206  and  _207
REMARK   84  A    between atoms: _212  and  _214
REMARK   85  A    between atoms: _214  and  _215
REMARK   86  A    between atoms: _214  and  _217
REMARK   87  A    between atoms: _220  and  _222
REMARK   88  A    between atoms: _222  and  _223
REMARK   89  A    between atoms: _222  and  _225
REMARK   90  A    between atoms: _225  and  _226
REMARK   91  A    between atoms: _231  and  _232
REMARK   92  A    between atoms: _234  and  _236
REMARK   93  A    between atoms: _236  and  _237
REMARK   94  A    between atoms: _236  and  _239
REMARK   95  A    between atoms: _239  and  _240
REMARK   96  A    between atoms: _243  and  _245
REMARK   97  A    between atoms: _245  and  _246
REMARK   98  A    between atoms: _248  and  _250
REMARK   99  A    between atoms: _250  and  _251
REMARK  100  A    between atoms: _250  and  _253
REMARK  101  A    between atoms: _253  and  _254
REMARK  102  A    between atoms: _257  and  _259
REMARK  103  A    between atoms: _259  and  _260
REMARK  104  A    between atoms: _263  and  _265
REMARK  105  A    between atoms: _265  and  _266
REMARK  106  A    between atoms: _265  and  _268
REMARK  107  A    between atoms: _268  and  _269
REMARK  108  A    between atoms: _272  and  _274
REMARK  109  A    between atoms: _274  and  _275
REMARK  110  A    between atoms: _274  and  _277
REMARK  111  A    between atoms: _277  and  _278
REMARK  112  A    between atoms: _280  and  _282
REMARK  113  A    between atoms: _282  and  _283
REMARK  114  A    between atoms: _282  and  _285
REMARK  115  A    between atoms: _285  and  _286
REMARK  116  A    between atoms: _288  and  _290
REMARK  117  A    between atoms: _290  and  _291
REMARK  118  A    between atoms: _293  and  _295
REMARK  119  A    between atoms: _295  and  _296
REMARK  120  A    between atoms: _295  and  _298
REMARK  121  A    between atoms: _298  and  _299
REMARK  122  A    between atoms: _302  and  _304
REMARK  123  A    between atoms: _304  and  _305
REMARK  124  A    between atoms: _308  and  _310
REMARK  125  A    between atoms: _310  and  _311
REMARK  126  A    between atoms: _310  and  _313
REMARK  127  A    between atoms: _313  and  _314
REMARK  128  A    between atoms: _319  and  _320
REMARK  129  A    between atoms: _322  and  _324
REMARK  130  A    between atoms: _324  and  _325
REMARK  131  A    between atoms: _324  and  _327
REMARK  132  A    between atoms: _327  and  _328
REMARK  133  A    between atoms: _331  and  _333
REMARK  134  A    between atoms: _333  and  _334
REMARK  135  A    between atoms: _337  and  _339
REMARK  136  A    between atoms: _339  and  _340
REMARK  137  A    between atoms: _339  and  _342
REMARK  138  A    between atoms: _342  and  _343
REMARK  139  A    between atoms: _346  and  _348
REMARK  140  A    between atoms: _348  and  _349
REMARK  141  A    between atoms: _348  and  _351
REMARK  142  A    between atoms: _351  and  _352
REMARK  143  A    between atoms: _352  and  _353
REMARK  144  A    between atoms: _353  and  _354
REMARK  145  A    between atoms: _354  and  _355
REMARK  146  A    between atoms: _359  and  _361
REMARK  147  A    between atoms: _361  and  _362
REMARK  148  A    between atoms: _361  and  _364
REMARK  149  A    between atoms: _364  and  _365
REMARK  150  A    between atoms: _367  and  _369
REMARK  151  A    between atoms: _369  and  _370
REMARK  152  A    between atoms: _372  and  _374
REMARK  153  A    between atoms: _374  and  _375
REMARK  154  A    between atoms: _374  and  _377
REMARK  155  A    between atoms: _377  and  _378
REMARK  156  A    between atoms: _381  and  _383
REMARK  157  A    between atoms: _383  and  _384
REMARK  158  A    between atoms: _383  and  _386
REMARK  159  A    between atoms: _386  and  _387
REMARK  160  A    between atoms: _390  and  _392
REMARK  161  A    between atoms: _392  and  _393
REMARK  162  A    between atoms: _396  and  _398
REMARK  163  A    between atoms: _398  and  _399
REMARK  164  A    between atoms: _401  and  _403
REMARK  165  A    between atoms: _403  and  _404
REMARK  166  A    between atoms: _403  and  _406
REMARK  167  A    between atoms: _406  and  _407
REMARK  168  A    between atoms: _413  and  _415
REMARK  169  A    between atoms: _415  and  _416
REMARK  170  A    between atoms: _415  and  _418
REMARK  171  A    between atoms: _418  and  _419
REMARK  172  A    between atoms: _422  and  _424
REMARK  173  A    between atoms: _424  and  _425
REMARK  174  A    between atoms: _424  and  _427
REMARK  175  A    between atoms: _427  and  _428
REMARK  176  A    between atoms: _433  and  _435
REMARK  177  A    between atoms: _435  and  _436
REMARK  178  A    between atoms: _435  and  _438
REMARK  179  A    between atoms: _438  and  _439
REMARK  180  A    between atoms: _442  and  _444
REMARK  181  A    between atoms: _444  and  _445
REMARK  182  A    between atoms: _444  and  _447
REMARK  183  A    between atoms: _447  and  _448
REMARK  184  A    between atoms: _453  and  _454
REMARK  185  A    between atoms: _456  and  _458
REMARK  186  A    between atoms: _458  and  _459
REMARK  187  A    between atoms: _458  and  _461
REMARK  188  A    between atoms: _461  and  _462
REMARK  189  A    between atoms: _465  and  _467
REMARK  190  A    between atoms: _467  and  _468
REMARK  191  A    between atoms: _467  and  _470
REMARK  192  A    between atoms: _470  and  _471
REMARK  193  A    between atoms: _471  and  _472
REMARK  194  A    between atoms: _475  and  _477
REMARK  195  A    between atoms: _477  and  _478
REMARK  196  A    between atoms: _477  and  _480
REMARK  197  A    between atoms: _480  and  _481
REMARK  198  A    between atoms: _484  and  _486
REMARK  199  A    between atoms: _486  and  _487
REMARK  200  A    between atoms: _489  and  _491
REMARK  201  A    between atoms: _491  and  _492
REMARK  202  A    between atoms: _494  and  _496
REMARK  203  A    between atoms: _496  and  _497
REMARK  204  A    between atoms: _496  and  _499
REMARK  205  A    between atoms: _499  and  _500
REMARK  206  A    between atoms: _500  and  _501
REMARK  207  A    between atoms: _506  and  _508
REMARK  208  A    between atoms: _508  and  _509
REMARK  209  A    between atoms: _512  and  _514
REMARK  210  A    between atoms: _514  and  _515
REMARK  211  A    between atoms: _514  and  _517
REMARK  212  A    between atoms: _517  and  _518
REMARK  213  A    between atoms: _521  and  _523
REMARK  214  A    between atoms: _523  and  _524
REMARK  215  A    between atoms: _523  and  _526
REMARK  216  A    between atoms: _526  and  _527
REMARK  217  A    between atoms: _527  and  _528
REMARK  218  A    between atoms: _533  and  _535
REMARK  219  A    between atoms: _535  and  _536
REMARK  220  A    between atoms: _535  and  _538
REMARK  221  A    between atoms: _538  and  _539
REMARK  222  A    between atoms: _542  and  _544
REMARK  223  A    between atoms: _544  and  _545
REMARK  224  A    between atoms: _544  and  _547
REMARK  225  A    between atoms: _547  and  _548
REMARK  226  A    between atoms: _548  and  _549
REMARK  227  A    between atoms: _549  and  _550
REMARK                            x       y       z     vdW  Elec       q    Type
REMARK                         _______ _______ _______ _____ _____    ______ ____
ROOT
ATOM      1  O   HOH     1     -15.985  -8.645  10.803  0.00  0.00    +0.000 OA
ENDROOT
TORSDOF 0
REMARK  Name = ../refined-set-2016/4r75/4r75_pocket.pdb
REMARK  227 active torsions:
REMARK  status: ('A' for Active; 'I' for Inactive)
REMARK    1  A    between atoms: _1  and  _3
REMARK    2  A    between atoms: _3  and  _4
REMARK    3  A    between atoms: _3  and  _6
REMARK    4  A    between atoms: _8  and  _10
REMARK    5  A    between atoms: _10  and  _11
REMARK    6  A    between atoms: _10  and  _13
REMARK    7  A    between atoms: _13  and  _14
REMARK    8  A    between atoms: _16  and  _18
REMARK    9  A    between atoms: _18  and  _19
REMARK   10  A    between atoms: _22  and  _24
REMARK   11  A    between atoms: _24  and  _25
REMARK   12  A    between atoms: _24  and  _27
REMARK   13  A    between atoms: _27  and  _28
REMARK   14  A    between atoms: _31  and  _33
REMARK   15  A    between atoms: _33  and  _34
REMARK   16  A    between atoms: _33  and  _36
REMARK   17  A    between atoms: _36  and  _37
REMARK   18  A    between atoms: _42  and  _44
REMARK   19  A    between atoms: _44  and  _45
REMARK   20  A    between atoms: _44  and  _47
REMARK   21  A    between atoms: _47  and  _48
REMARK   22  A    between atoms: _48  and  _49
REMARK   23  A    between atoms: _51  and  _53
REMARK   24  A    between atoms: _53  and  _54
REMARK   25  A    between atoms: _53  and  _56
REMARK   26  A    between atoms: _56  and  _57
REMARK   27  A    between atoms: _57  and  _58
REMARK   28  A    between atoms: _58  and  _59
REMARK   29  A    between atoms: _68  and  _70
REMARK   30  A    between atoms: _70  and  _71
REMARK   31  A    between atoms: _70  and  _73
REMARK   32  A    between atoms: _73  and  _74
REMARK   33  A    between atoms: _79  and  _81
REMARK   34  A    between atoms: _81  and  _82
REMARK   35  A    between atoms: _84  and  _86
REMARK   36  A    between atoms: _86  and  _87
REMARK   37  A    between atoms: _86  and  _89
REMARK   38  A    between atoms: _89  and  _90
REMARK   39  A    between atoms: _92  and  _94
REMARK   40  A    between atoms: _94  and  _95
REMARK   41  A    between atoms: _97  and  _99
REMARK   42  A    between atoms: _99  and  _100
REMARK   43  A    between atoms: _99  and  _102
REMARK   44  A    between atoms: _102  and  _103
REMARK   45  A    between atoms: _105  and  _107
REMARK   46  A    between atoms: _107  and  _108
REMARK   47  A    between atoms: _107  and  _110
REMARK   48  A    between atoms: _110  and  _111
REMARK   49  A    between atoms: _114  and  _116
REMARK   50  A    between atoms: _116  and  _117
REMARK   51  A    between atoms: _116  and  _119
REMARK   52  A    between atoms: _119  and  _120
REMARK   53  A    between atoms: _126  and  _128
REMARK   54  A    between atoms: _128  and  _129
REMARK   55  A    between atoms: _128  and  _131
REMARK   56  A    between atoms: _131  and  _132
REMARK   57  A    between atoms: _142  and  _144
REMARK   58  A    between atoms: _144  and  _145
REMARK   59  A    between atoms: _144  and  _147
REMARK   60  A    between atoms: _147  and  _148
REMARK   61  A    between atoms: _153  and  _154
REMARK   62  A    between atoms: _156  and  _158
REMARK   63  A    between atoms: _158  and  _159
REMARK   64  A    between atoms: _161  and  _163
REMARK   65  A    between atoms: _163  and  _164
REMARK   66  A    between atoms: _166  and  _168
REMARK   67  A    between atoms: _168  and  _169
REMARK   68  A    between atoms: _168  and  _171
REMARK   69  A    between atoms: _171  and  _172
REMARK   70  A    between atoms: _175  and  _177
REMARK   71  A    between atoms: _177  and  _178
REMARK   72  A    between atoms: _177  and  _180
REMARK   73  A    between atoms: _180  and  _181
REMARK   74  A    between atoms: _184  and  _186
REMARK   75  A    between atoms: _186  and  _187
REMARK   76  A    between atoms: _186  and  _189
REMARK   77  A    between atoms: _189  and  _190
REMARK   78  A    between atoms: _194  and  _195
REMARK   79  A    between atoms: _200  and  _202
REMARK   80  A    between atoms: _202  and  _203
REMARK   81  A    between atoms: _202  and  _205
REMARK   82  A    between atoms: _205  and  _206
REMARK   83  A    between atoms: _206  and  _207
REMARK   84  A    between atoms: _212  and  _214
REMARK   85  A    between atoms: _214  and  _215
REMARK   86  A    between atoms: _214  and  _217
REMARK   87  A    between atoms: _220  and  _222
REMARK   88  A    between atoms: _222  and  _223
REMARK   89  A    between atoms: _222  and  _225
REMARK   90  A    between atoms: _225  and  _226
REMARK   91  A    between atoms: _231  and  _232
REMARK   92  A    between atoms: _234  and  _236
REMARK   93  A    between atoms: _236  and  _237
REMARK   94  A    between atoms: _236  and  _239
REMARK   95  A    between atoms: _239  and  _240
REMARK   96  A    between atoms: _243  and  _245
REMARK   97  A    between atoms: _245  and  _246
REMARK   98  A    between atoms: _248  and  _250
REMARK   99  A    between atoms: _250  and  _251
REMARK  100  A    between atoms: _250  and  _253
REMARK  101  A    between atoms: _253  and  _254
REMARK  102  A    between atoms: _257  and  _259
REMARK  103  A    between atoms: _259  and  _260
REMARK  104  A    between atoms: _263  and  _265
REMARK  105  A    between atoms: _265  and  _266
REMARK  106  A    between atoms: _265  and  _268
REMARK  107  A    between atoms: _268  and  _269
REMARK  108  A    between atoms: _272  and  _274
REMARK  109  A    between atoms: _274  and  _275
REMARK  110  A    between atoms: _274  and  _277
REMARK  111  A    between atoms: _277  and  _278
REMARK  112  A    between atoms: _280  and  _282
REMARK  113  A    between atoms: _282  and  _283
REMARK  114  A    between atoms: _282  and  _285
REMARK  115  A    between atoms: _285  and  _286
REMARK  116  A    between atoms: _288  and  _290
REMARK  117  A    between atoms: _290  and  _291
REMARK  118  A    between atoms: _293  and  _295
REMARK  119  A    between atoms: _295  and  _296
REMARK  120  A    between atoms: _295  and  _298
REMARK  121  A    between atoms: _298  and  _299
REMARK  122  A    between atoms: _302  and  _304
REMARK  123  A    between atoms: _304  and  _305
REMARK  124  A    between atoms: _308  and  _310
REMARK  125  A    between atoms: _310  and  _311
REMARK  126  A    between atoms: _310  and  _313
REMARK  127  A    between atoms: _313  and  _314
REMARK  128  A    between atoms: _319  and  _320
REMARK  129  A    between atoms: _322  and  _324
REMARK  130  A    between atoms: _324  and  _325
REMARK  131  A    between atoms: _324  and  _327
REMARK  132  A    between atoms: _327  and  _328
REMARK  133  A    between atoms: _331  and  _333
REMARK  134  A    between atoms: _333  and  _334
REMARK  135  A    between atoms: _337  and  _339
REMARK  136  A    between atoms: _339  and  _340
REMARK  137  A    between atoms: _339  and  _342
REMARK  138  A    between atoms: _342  and  _343
REMARK  139  A    between atoms: _346  and  _348
REMARK  140  A    between atoms: _348  and  _349
REMARK  141  A    between atoms: _348  and  _351
REMARK  142  A    between atoms: _351  and  _352
REMARK  143  A    between atoms: _352  and  _353
REMARK  144  A    between atoms: _353  and  _354
REMARK  145  A    between atoms: _354  and  _355
REMARK  146  A    between atoms: _359  and  _361
REMARK  147  A    between atoms: _361  and  _362
REMARK  148  A    between atoms: _361  and  _364
REMARK  149  A    between atoms: _364  and  _365
REMARK  150  A    between atoms: _367  and  _369
REMARK  151  A    between atoms: _369  and  _370
REMARK  152  A    between atoms: _372  and  _374
REMARK  153  A    between atoms: _374  and  _375
REMARK  154  A    between atoms: _374  and  _377
REMARK  155  A    between atoms: _377  and  _378
REMARK  156  A    between atoms: _381  and  _383
REMARK  157  A    between atoms: _383  and  _384
REMARK  158  A    between atoms: _383  and  _386
REMARK  159  A    between atoms: _386  and  _387
REMARK  160  A    between atoms: _390  and  _392
REMARK  161  A    between atoms: _392  and  _393
REMARK  162  A    between atoms: _396  and  _398
REMARK  163  A    between atoms: _398  and  _399
REMARK  164  A    between atoms: _401  and  _403
REMARK  165  A    between atoms: _403  and  _404
REMARK  166  A    between atoms: _403  and  _406
REMARK  167  A    between atoms: _406  and  _407
REMARK  168  A    between atoms: _413  and  _415
REMARK  169  A    between atoms: _415  and  _416
REMARK  170  A    between atoms: _415  and  _418
REMARK  171  A    between atoms: _418  and  _419
REMARK  172  A    between atoms: _422  and  _424
REMARK  173  A    between atoms: _424  and  _425
REMARK  174  A    between atoms: _424  and  _427
REMARK  175  A    between atoms: _427  and  _428
REMARK  176  A    between atoms: _433  and  _435
REMARK  177  A    between atoms: _435  and  _436
REMARK  178  A    between atoms: _435  and  _438
REMARK  179  A    between atoms: _438  and  _439
REMARK  180  A    between atoms: _442  and  _444
REMARK  181  A    between atoms: _444  and  _445
REMARK  182  A    between atoms: _444  and  _447
REMARK  183  A    between atoms: _447  and  _448
REMARK  184  A    between atoms: _453  and  _454
REMARK  185  A    between atoms: _456  and  _458
REMARK  186  A    between atoms: _458  and  _459
REMARK  187  A    between atoms: _458  and  _461
REMARK  188  A    between atoms: _461  and  _462
REMARK  189  A    between atoms: _465  and  _467
REMARK  190  A    between atoms: _467  and  _468
REMARK  191  A    between atoms: _467  and  _470
REMARK  192  A    between atoms: _470  and  _471
REMARK  193  A    between atoms: _471  and  _472
REMARK  194  A    between atoms: _475  and  _477
REMARK  195  A    between atoms: _477  and  _478
REMARK  196  A    between atoms: _477  and  _480
REMARK  197  A    between atoms: _480  and  _481
REMARK  198  A    between atoms: _484  and  _486
REMARK  199  A    between atoms: _486  and  _487
REMARK  200  A    between atoms: _489  and  _491
REMARK  201  A    between atoms: _491  and  _492
REMARK  202  A    between atoms: _494  and  _496
REMARK  203  A    between atoms: _496  and  _497
REMARK  204  A    between atoms: _496  and  _499
REMARK  205  A    between atoms: _499  and  _500
REMARK  206  A    between atoms: _500  and  _501
REMARK  207  A    between atoms: _506  and  _508
REMARK  208  A    between atoms: _508  and  _509
REMARK  209  A    between atoms: _512  and  _514
REMARK  210  A    between atoms: _514  and  _515
REMARK  211  A    between atoms: _514  and  _517
REMARK  212  A    between atoms: _517  and  _518
REMARK  213  A    between atoms: _521  and  _523
REMARK  214  A    between atoms: _523  and  _524
REMARK  215  A    between atoms: _523  and  _526
REMARK  216  A    between atoms: _526  and  _527
REMARK  217  A    between atoms: _527  and  _528
REMARK  218  A    between atoms: _533  and  _535
REMARK  219  A    between atoms: _535  and  _536
REMARK  220  A    between atoms: _535  and  _538
REMARK  221  A    between atoms: _538  and  _539
REMARK  222  A    between atoms: _542  and  _544
REMARK  223  A    between atoms: _544  and  _545
REMARK  224  A    between atoms: _544  and  _547
REMARK  225  A    between atoms: _547  and  _548
REMARK  226  A    between atoms: _548  and  _549
REMARK  227  A    between atoms: _549  and  _550
REMARK                            x       y       z     vdW  Elec       q    Type
REMARK                         _______ _______ _______ _____ _____    ______ ____
ROOT
ATOM      1  O   HOH     1      -5.439  -3.705   3.308  0.00  0.00    +0.000 OA
ENDROOT
TORSDOF 0
REMARK  Name = ../refined-set-2016/4r75/4r75_pocket.pdb
REMARK  227 active torsions:
REMARK  status: ('A' for Active; 'I' for Inactive)
REMARK    1  A    between atoms: _1  and  _3
REMARK    2  A    between atoms: _3  and  _4
REMARK    3  A    between atoms: _3  and  _6
REMARK    4  A    between atoms: _8  and  _10
REMARK    5  A    between atoms: _10  and  _11
REMARK    6  A    between atoms: _10  and  _13
REMARK    7  A    between atoms: _13  and  _14
REMARK    8  A    between atoms: _16  and  _18
REMARK    9  A    between atoms: _18  and  _19
REMARK   10  A    between atoms: _22  and  _24
REMARK   11  A    between atoms: _24  and  _25
REMARK   12  A    between atoms: _24  and  _27
REMARK   13  A    between atoms: _27  and  _28
REMARK   14  A    between atoms: _31  and  _33
REMARK   15  A    between atoms: _33  and  _34
REMARK   16  A    between atoms: _33  and  _36
REMARK   17  A    between atoms: _36  and  _37
REMARK   18  A    between atoms: _42  and  _44
REMARK   19  A    between atoms: _44  and  _45
REMARK   20  A    between atoms: _44  and  _47
REMARK   21  A    between atoms: _47  and  _48
REMARK   22  A    between atoms: _48  and  _49
REMARK   23  A    between atoms: _51  and  _53
REMARK   24  A    between atoms: _53  and  _54
REMARK   25  A    between atoms: _53  and  _56
REMARK   26  A    between atoms: _56  and  _57
REMARK   27  A    between atoms: _57  and  _58
REMARK   28  A    between atoms: _58  and  _59
REMARK   29  A    between atoms: _68  and  _70
REMARK   30  A    between atoms: _70  and  _71
REMARK   31  A    between atoms: _70  and  _73
REMARK   32  A    between atoms: _73  and  _74
REMARK   33  A    between atoms: _79  and  _81
REMARK   34  A    between atoms: _81  and  _82
REMARK   35  A    between atoms: _84  and  _86
REMARK   36  A    between atoms: _86  and  _87
REMARK   37  A    between atoms: _86  and  _89
REMARK   38  A    between atoms: _89  and  _90
REMARK   39  A    between atoms: _92  and  _94
REMARK   40  A    between atoms: _94  and  _95
REMARK   41  A    between atoms: _97  and  _99
REMARK   42  A    between atoms: _99  and  _100
REMARK   43  A    between atoms: _99  and  _102
REMARK   44  A    between atoms: _102  and  _103
REMARK   45  A    between atoms: _105  and  _107
REMARK   46  A    between atoms: _107  and  _108
REMARK   47  A    between atoms: _107  and  _110
REMARK   48  A    between atoms: _110  and  _111
REMARK   49  A    between atoms: _114  and  _116
REMARK   50  A    between atoms: _116  and  _117
REMARK   51  A    between atoms: _116  and  _119
REMARK   52  A    between atoms: _119  and  _120
REMARK   53  A    between atoms: _126  and  _128
REMARK   54  A    between atoms: _128  and  _129
REMARK   55  A    between atoms: _128  and  _131
REMARK   56  A    between atoms: _131  and  _132
REMARK   57  A    between atoms: _142  and  _144
REMARK   58  A    between atoms: _144  and  _145
REMARK   59  A    between atoms: _144  and  _147
REMARK   60  A    between atoms: _147  and  _148
REMARK   61  A    between atoms: _153  and  _154
REMARK   62  A    between atoms: _156  and  _158
REMARK   63  A    between atoms: _158  and  _159
REMARK   64  A    between atoms: _161  and  _163
REMARK   65  A    between atoms: _163  and  _164
REMARK   66  A    between atoms: _166  and  _168
REMARK   67  A    between atoms: _168  and  _169
REMARK   68  A    between atoms: _168  and  _171
REMARK   69  A    between atoms: _171  and  _172
REMARK   70  A    between atoms: _175  and  _177
REMARK   71  A    between atoms: _177  and  _178
REMARK   72  A    between atoms: _177  and  _180
REMARK   73  A    between atoms: _180  and  _181
REMARK   74  A    between atoms: _184  and  _186
REMARK   75  A    between atoms: _186  and  _187
REMARK   76  A    between atoms: _186  and  _189
REMARK   77  A    between atoms: _189  and  _190
REMARK   78  A    between atoms: _194  and  _195
REMARK   79  A    between atoms: _200  and  _202
REMARK   80  A    between atoms: _202  and  _203
REMARK   81  A    between atoms: _202  and  _205
REMARK   82  A    between atoms: _205  and  _206
REMARK   83  A    between atoms: _206  and  _207
REMARK   84  A    between atoms: _212  and  _214
REMARK   85  A    between atoms: _214  and  _215
REMARK   86  A    between atoms: _214  and  _217
REMARK   87  A    between atoms: _220  and  _222
REMARK   88  A    between atoms: _222  and  _223
REMARK   89  A    between atoms: _222  and  _225
REMARK   90  A    between atoms: _225  and  _226
REMARK   91  A    between atoms: _231  and  _232
REMARK   92  A    between atoms: _234  and  _236
REMARK   93  A    between atoms: _236  and  _237
REMARK   94  A    between atoms: _236  and  _239
REMARK   95  A    between atoms: _239  and  _240
REMARK   96  A    between atoms: _243  and  _245
REMARK   97  A    between atoms: _245  and  _246
REMARK   98  A    between atoms: _248  and  _250
REMARK   99  A    between atoms: _250  and  _251
REMARK  100  A    between atoms: _250  and  _253
REMARK  101  A    between atoms: _253  and  _254
REMARK  102  A    between atoms: _257  and  _259
REMARK  103  A    between atoms: _259  and  _260
REMARK  104  A    between atoms: _263  and  _265
REMARK  105  A    between atoms: _265  and  _266
REMARK  106  A    between atoms: _265  and  _268
REMARK  107  A    between atoms: _268  and  _269
REMARK  108  A    between atoms: _272  and  _274
REMARK  109  A    between atoms: _274  and  _275
REMARK  110  A    between atoms: _274  and  _277
REMARK  111  A    between atoms: _277  and  _278
REMARK  112  A    between atoms: _280  and  _282
REMARK  113  A    between atoms: _282  and  _283
REMARK  114  A    between atoms: _282  and  _285
REMARK  115  A    between atoms: _285  and  _286
REMARK  116  A    between atoms: _288  and  _290
REMARK  117  A    between atoms: _290  and  _291
REMARK  118  A    between atoms: _293  and  _295
REMARK  119  A    between atoms: _295  and  _296
REMARK  120  A    between atoms: _295  and  _298
REMARK  121  A    between atoms: _298  and  _299
REMARK  122  A    between atoms: _302  and  _304
REMARK  123  A    between atoms: _304  and  _305
REMARK  124  A    between atoms: _308  and  _310
REMARK  125  A    between atoms: _310  and  _311
REMARK  126  A    between atoms: _310  and  _313
REMARK  127  A    between atoms: _313  and  _314
REMARK  128  A    between atoms: _319  and  _320
REMARK  129  A    between atoms: _322  and  _324
REMARK  130  A    between atoms: _324  and  _325
REMARK  131  A    between atoms: _324  and  _327
REMARK  132  A    between atoms: _327  and  _328
REMARK  133  A    between atoms: _331  and  _333
REMARK  134  A    between atoms: _333  and  _334
REMARK  135  A    between atoms: _337  and  _339
REMARK  136  A    between atoms: _339  and  _340
REMARK  137  A    between atoms: _339  and  _342
REMARK  138  A    between atoms: _342  and  _343
REMARK  139  A    between atoms: _346  and  _348
REMARK  140  A    between atoms: _348  and  _349
REMARK  141  A    between atoms: _348  and  _351
REMARK  142  A    between atoms: _351  and  _352
REMARK  143  A    between atoms: _352  and  _353
REMARK  144  A    between atoms: _353  and  _354
REMARK  145  A    between atoms: _354  and  _355
REMARK  146  A    between atoms: _359  and  _361
REMARK  147  A    between atoms: _361  and  _362
REMARK  148  A    between atoms: _361  and  _364
REMARK  149  A    between atoms: _364  and  _365
REMARK  150  A    between atoms: _367  and  _369
REMARK  151  A    between atoms: _369  and  _370
REMARK  152  A    between atoms: _372  and  _374
REMARK  153  A    between atoms: _374  and  _375
REMARK  154  A    between atoms: _374  and  _377
REMARK  155  A    between atoms: _377  and  _378
REMARK  156  A    between atoms: _381  and  _383
REMARK  157  A    between atoms: _383  and  _384
REMARK  158  A    between atoms: _383  and  _386
REMARK  159  A    between atoms: _386  and  _387
REMARK  160  A    between atoms: _390  and  _392
REMARK  161  A    between atoms: _392  and  _393
REMARK  162  A    between atoms: _396  and  _398
REMARK  163  A    between atoms: _398  and  _399
REMARK  164  A    between atoms: _401  and  _403
REMARK  165  A    between atoms: _403  and  _404
REMARK  166  A    between atoms: _403  and  _406
REMARK  167  A    between atoms: _406  and  _407
REMARK  168  A    between atoms: _413  and  _415
REMARK  169  A    between atoms: _415  and  _416
REMARK  170  A    between atoms: _415  and  _418
REMARK  171  A    between atoms: _418  and  _419
REMARK  172  A    between atoms: _422  and  _424
REMARK  173  A    between atoms: _424  and  _425
REMARK  174  A    between atoms: _424  and  _427
REMARK  175  A    between atoms: _427  and  _428
REMARK  176  A    between atoms: _433  and  _435
REMARK  177  A    between atoms: _435  and  _436
REMARK  178  A    between atoms: _435  and  _438
REMARK  179  A    between atoms: _438  and  _439
REMARK  180  A    between atoms: _442  and  _444
REMARK  181  A    between atoms: _444  and  _445
REMARK  182  A    between atoms: _444  and  _447
REMARK  183  A    between atoms: _447  and  _448
REMARK  184  A    between atoms: _453  and  _454
REMARK  185  A    between atoms: _456  and  _458
REMARK  186  A    between atoms: _458  and  _459
REMARK  187  A    between atoms: _458  and  _461
REMARK  188  A    between atoms: _461  and  _462
REMARK  189  A    between atoms: _465  and  _467
REMARK  190  A    between atoms: _467  and  _468
REMARK  191  A    between atoms: _467  and  _470
REMARK  192  A    between atoms: _470  and  _471
REMARK  193  A    between atoms: _471  and  _472
REMARK  194  A    between atoms: _475  and  _477
REMARK  195  A    between atoms: _477  and  _478
REMARK  196  A    between atoms: _477  and  _480
REMARK  197  A    between atoms: _480  and  _481
REMARK  198  A    between atoms: _484  and  _486
REMARK  199  A    between atoms: _486  and  _487
REMARK  200  A    between atoms: _489  and  _491
REMARK  201  A    between atoms: _491  and  _492
REMARK  202  A    between atoms: _494  and  _496
REMARK  203  A    between atoms: _496  and  _497
REMARK  204  A    between atoms: _496  and  _499
REMARK  205  A    between atoms: _499  and  _500
REMARK  206  A    between atoms: _500  and  _501
REMARK  207  A    between atoms: _506  and  _508
REMARK  208  A    between atoms: _508  and  _509
REMARK  209  A    between atoms: _512  and  _514
REMARK  210  A    between atoms: _514  and  _515
REMARK  211  A    between atoms: _514  and  _517
REMARK  212  A    between atoms: _517  and  _518
REMARK  213  A    between atoms: _521  and  _523
REMARK  214  A    between atoms: _523  and  _524
REMARK  215  A    between atoms: _523  and  _526
REMARK  216  A    between atoms: _526  and  _527
REMARK  217  A    between atoms: _527  and  _528
REMARK  218  A    between atoms: _533  and  _535
REMARK  219  A    between atoms: _535  and  _536
REMARK  220  A    between atoms: _535  and  _538
REMARK  221  A    between atoms: _538  and  _539
REMARK  222  A    between atoms: _542  and  _544
REMARK  223  A    between atoms: _544  and  _545
REMARK  224  A    between atoms: _544  and  _547
REMARK  225  A    between atoms: _547  and  _548
REMARK  226  A    between atoms: _548  and  _549
REMARK  227  A    between atoms: _549  and  _550
REMARK                            x       y       z     vdW  Elec       q    Type
REMARK                         _______ _______ _______ _____ _____    ______ ____
ROOT
ATOM      1  O   HOH     1     -22.529 -13.040  13.324  0.00  0.00    +0.000 OA
ENDROOT
TORSDOF 0
REMARK  Name = ../refined-set-2016/4r75/4r75_pocket.pdb
REMARK  227 active torsions:
REMARK  status: ('A' for Active; 'I' for Inactive)
REMARK    1  A    between atoms: _1  and  _3
REMARK    2  A    between atoms: _3  and  _4
REMARK    3  A    between atoms: _3  and  _6
REMARK    4  A    between atoms: _8  and  _10
REMARK    5  A    between atoms: _10  and  _11
REMARK    6  A    between atoms: _10  and  _13
REMARK    7  A    between atoms: _13  and  _14
REMARK    8  A    between atoms: _16  and  _18
REMARK    9  A    between atoms: _18  and  _19
REMARK   10  A    between atoms: _22  and  _24
REMARK   11  A    between atoms: _24  and  _25
REMARK   12  A    between atoms: _24  and  _27
REMARK   13  A    between atoms: _27  and  _28
REMARK   14  A    between atoms: _31  and  _33
REMARK   15  A    between atoms: _33  and  _34
REMARK   16  A    between atoms: _33  and  _36
REMARK   17  A    between atoms: _36  and  _37
REMARK   18  A    between atoms: _42  and  _44
REMARK   19  A    between atoms: _44  and  _45
REMARK   20  A    between atoms: _44  and  _47
REMARK   21  A    between atoms: _47  and  _48
REMARK   22  A    between atoms: _48  and  _49
REMARK   23  A    between atoms: _51  and  _53
REMARK   24  A    between atoms: _53  and  _54
REMARK   25  A    between atoms: _53  and  _56
REMARK   26  A    between atoms: _56  and  _57
REMARK   27  A    between atoms: _57  and  _58
REMARK   28  A    between atoms: _58  and  _59
REMARK   29  A    between atoms: _68  and  _70
REMARK   30  A    between atoms: _70  and  _71
REMARK   31  A    between atoms: _70  and  _73
REMARK   32  A    between atoms: _73  and  _74
REMARK   33  A    between atoms: _79  and  _81
REMARK   34  A    between atoms: _81  and  _82
REMARK   35  A    between atoms: _84  and  _86
REMARK   36  A    between atoms: _86  and  _87
REMARK   37  A    between atoms: _86  and  _89
REMARK   38  A    between atoms: _89  and  _90
REMARK   39  A    between atoms: _92  and  _94
REMARK   40  A    between atoms: _94  and  _95
REMARK   41  A    between atoms: _97  and  _99
REMARK   42  A    between atoms: _99  and  _100
REMARK   43  A    between atoms: _99  and  _102
REMARK   44  A    between atoms: _102  and  _103
REMARK   45  A    between atoms: _105  and  _107
REMARK   46  A    between atoms: _107  and  _108
REMARK   47  A    between atoms: _107  and  _110
REMARK   48  A    between atoms: _110  and  _111
REMARK   49  A    between atoms: _114  and  _116
REMARK   50  A    between atoms: _116  and  _117
REMARK   51  A    between atoms: _116  and  _119
REMARK   52  A    between atoms: _119  and  _120
REMARK   53  A    between atoms: _126  and  _128
REMARK   54  A    between atoms: _128  and  _129
REMARK   55  A    between atoms: _128  and  _131
REMARK   56  A    between atoms: _131  and  _132
REMARK   57  A    between atoms: _142  and  _144
REMARK   58  A    between atoms: _144  and  _145
REMARK   59  A    between atoms: _144  and  _147
REMARK   60  A    between atoms: _147  and  _148
REMARK   61  A    between atoms: _153  and  _154
REMARK   62  A    between atoms: _156  and  _158
REMARK   63  A    between atoms: _158  and  _159
REMARK   64  A    between atoms: _161  and  _163
REMARK   65  A    between atoms: _163  and  _164
REMARK   66  A    between atoms: _166  and  _168
REMARK   67  A    between atoms: _168  and  _169
REMARK   68  A    between atoms: _168  and  _171
REMARK   69  A    between atoms: _171  and  _172
REMARK   70  A    between atoms: _175  and  _177
REMARK   71  A    between atoms: _177  and  _178
REMARK   72  A    between atoms: _177  and  _180
REMARK   73  A    between atoms: _180  and  _181
REMARK   74  A    between atoms: _184  and  _186
REMARK   75  A    between atoms: _186  and  _187
REMARK   76  A    between atoms: _186  and  _189
REMARK   77  A    between atoms: _189  and  _190
REMARK   78  A    between atoms: _194  and  _195
REMARK   79  A    between atoms: _200  and  _202
REMARK   80  A    between atoms: _202  and  _203
REMARK   81  A    between atoms: _202  and  _205
REMARK   82  A    between atoms: _205  and  _206
REMARK   83  A    between atoms: _206  and  _207
REMARK   84  A    between atoms: _212  and  _214
REMARK   85  A    between atoms: _214  and  _215
REMARK   86  A    between atoms: _214  and  _217
REMARK   87  A    between atoms: _220  and  _222
REMARK   88  A    between atoms: _222  and  _223
REMARK   89  A    between atoms: _222  and  _225
REMARK   90  A    between atoms: _225  and  _226
REMARK   91  A    between atoms: _231  and  _232
REMARK   92  A    between atoms: _234  and  _236
REMARK   93  A    between atoms: _236  and  _237
REMARK   94  A    between atoms: _236  and  _239
REMARK   95  A    between atoms: _239  and  _240
REMARK   96  A    between atoms: _243  and  _245
REMARK   97  A    between atoms: _245  and  _246
REMARK   98  A    between atoms: _248  and  _250
REMARK   99  A    between atoms: _250  and  _251
REMARK  100  A    between atoms: _250  and  _253
REMARK  101  A    between atoms: _253  and  _254
REMARK  102  A    between atoms: _257  and  _259
REMARK  103  A    between atoms: _259  and  _260
REMARK  104  A    between atoms: _263  and  _265
REMARK  105  A    between atoms: _265  and  _266
REMARK  106  A    between atoms: _265  and  _268
REMARK  107  A    between atoms: _268  and  _269
REMARK  108  A    between atoms: _272  and  _274
REMARK  109  A    between atoms: _274  and  _275
REMARK  110  A    between atoms: _274  and  _277
REMARK  111  A    between atoms: _277  and  _278
REMARK  112  A    between atoms: _280  and  _282
REMARK  113  A    between atoms: _282  and  _283
REMARK  114  A    between atoms: _282  and  _285
REMARK  115  A    between atoms: _285  and  _286
REMARK  116  A    between atoms: _288  and  _290
REMARK  117  A    between atoms: _290  and  _291
REMARK  118  A    between atoms: _293  and  _295
REMARK  119  A    between atoms: _295  and  _296
REMARK  120  A    between atoms: _295  and  _298
REMARK  121  A    between atoms: _298  and  _299
REMARK  122  A    between atoms: _302  and  _304
REMARK  123  A    between atoms: _304  and  _305
REMARK  124  A    between atoms: _308  and  _310
REMARK  125  A    between atoms: _310  and  _311
REMARK  126  A    between atoms: _310  and  _313
REMARK  127  A    between atoms: _313  and  _314
REMARK  128  A    between atoms: _319  and  _320
REMARK  129  A    between atoms: _322  and  _324
REMARK  130  A    between atoms: _324  and  _325
REMARK  131  A    between atoms: _324  and  _327
REMARK  132  A    between atoms: _327  and  _328
REMARK  133  A    between atoms: _331  and  _333
REMARK  134  A    between atoms: _333  and  _334
REMARK  135  A    between atoms: _337  and  _339
REMARK  136  A    between atoms: _339  and  _340
REMARK  137  A    between atoms: _339  and  _342
REMARK  138  A    between atoms: _342  and  _343
REMARK  139  A    between atoms: _346  and  _348
REMARK  140  A    between atoms: _348  and  _349
REMARK  141  A    between atoms: _348  and  _351
REMARK  142  A    between atoms: _351  and  _352
REMARK  143  A    between atoms: _352  and  _353
REMARK  144  A    between atoms: _353  and  _354
REMARK  145  A    between atoms: _354  and  _355
REMARK  146  A    between atoms: _359  and  _361
REMARK  147  A    between atoms: _361  and  _362
REMARK  148  A    between atoms: _361  and  _364
REMARK  149  A    between atoms: _364  and  _365
REMARK  150  A    between atoms: _367  and  _369
REMARK  151  A    between atoms: _369  and  _370
REMARK  152  A    between atoms: _372  and  _374
REMARK  153  A    between atoms: _374  and  _375
REMARK  154  A    between atoms: _374  and  _377
REMARK  155  A    between atoms: _377  and  _378
REMARK  156  A    between atoms: _381  and  _383
REMARK  157  A    between atoms: _383  and  _384
REMARK  158  A    between atoms: _383  and  _386
REMARK  159  A    between atoms: _386  and  _387
REMARK  160  A    between atoms: _390  and  _392
REMARK  161  A    between atoms: _392  and  _393
REMARK  162  A    between atoms: _396  and  _398
REMARK  163  A    between atoms: _398  and  _399
REMARK  164  A    between atoms: _401  and  _403
REMARK  165  A    between atoms: _403  and  _404
REMARK  166  A    between atoms: _403  and  _406
REMARK  167  A    between atoms: _406  and  _407
REMARK  168  A    between atoms: _413  and  _415
REMARK  169  A    between atoms: _415  and  _416
REMARK  170  A    between atoms: _415  and  _418
REMARK  171  A    between atoms: _418  and  _419
REMARK  172  A    between atoms: _422  and  _424
REMARK  173  A    between atoms: _424  and  _425
REMARK  174  A    between atoms: _424  and  _427
REMARK  175  A    between atoms: _427  and  _428
REMARK  176  A    between atoms: _433  and  _435
REMARK  177  A    between atoms: _435  and  _436
REMARK  178  A    between atoms: _435  and  _438
REMARK  179  A    between atoms: _438  and  _439
REMARK  180  A    between atoms: _442  and  _444
REMARK  181  A    between atoms: _444  and  _445
REMARK  182  A    between atoms: _444  and  _447
REMARK  183  A    between atoms: _447  and  _448
REMARK  184  A    between atoms: _453  and  _454
REMARK  185  A    between atoms: _456  and  _458
REMARK  186  A    between atoms: _458  and  _459
REMARK  187  A    between atoms: _458  and  _461
REMARK  188  A    between atoms: _461  and  _462
REMARK  189  A    between atoms: _465  and  _467
REMARK  190  A    between atoms: _467  and  _468
REMARK  191  A    between atoms: _467  and  _470
REMARK  192  A    between atoms: _470  and  _471
REMARK  193  A    between atoms: _471  and  _472
REMARK  194  A    between atoms: _475  and  _477
REMARK  195  A    between atoms: _477  and  _478
REMARK  196  A    between atoms: _477  and  _480
REMARK  197  A    between atoms: _480  and  _481
REMARK  198  A    between atoms: _484  and  _486
REMARK  199  A    between atoms: _486  and  _487
REMARK  200  A    between atoms: _489  and  _491
REMARK  201  A    between atoms: _491  and  _492
REMARK  202  A    between atoms: _494  and  _496
REMARK  203  A    between atoms: _496  and  _497
REMARK  204  A    between atoms: _496  and  _499
REMARK  205  A    between atoms: _499  and  _500
REMARK  206  A    between atoms: _500  and  _501
REMARK  207  A    between atoms: _506  and  _508
REMARK  208  A    between atoms: _508  and  _509
REMARK  209  A    between atoms: _512  and  _514
REMARK  210  A    between atoms: _514  and  _515
REMARK  211  A    between atoms: _514  and  _517
REMARK  212  A    between atoms: _517  and  _518
REMARK  213  A    between atoms: _521  and  _523
REMARK  214  A    between atoms: _523  and  _524
REMARK  215  A    between atoms: _523  and  _526
REMARK  216  A    between atoms: _526  and  _527
REMARK  217  A    between atoms: _527  and  _528
REMARK  218  A    between atoms: _533  and  _535
REMARK  219  A    between atoms: _535  and  _536
REMARK  220  A    between atoms: _535  and  _538
REMARK  221  A    between atoms: _538  and  _539
REMARK  222  A    between atoms: _542  and  _544
REMARK  223  A    between atoms: _544  and  _545
REMARK  224  A    between atoms: _544  and  _547
REMARK  225  A    between atoms: _547  and  _548
REMARK  226  A    between atoms: _548  and  _549
REMARK  227  A    between atoms: _549  and  _550
REMARK                            x       y       z     vdW  Elec       q    Type
REMARK                         _______ _______ _______ _____ _____    ______ ____
ROOT
ATOM      1  O   HOH     1     -10.759  -1.955  11.277  0.00  0.00    +0.000 OA
ENDROOT
TORSDOF 0
REMARK  Name = ../refined-set-2016/4r75/4r75_pocket.pdb
REMARK  227 active torsions:
REMARK  status: ('A' for Active; 'I' for Inactive)
REMARK    1  A    between atoms: _1  and  _3
REMARK    2  A    between atoms: _3  and  _4
REMARK    3  A    between atoms: _3  and  _6
REMARK    4  A    between atoms: _8  and  _10
REMARK    5  A    between atoms: _10  and  _11
REMARK    6  A    between atoms: _10  and  _13
REMARK    7  A    between atoms: _13  and  _14
REMARK    8  A    between atoms: _16  and  _18
REMARK    9  A    between atoms: _18  and  _19
REMARK   10  A    between atoms: _22  and  _24
REMARK   11  A    between atoms: _24  and  _25
REMARK   12  A    between atoms: _24  and  _27
REMARK   13  A    between atoms: _27  and  _28
REMARK   14  A    between atoms: _31  and  _33
REMARK   15  A    between atoms: _33  and  _34
REMARK   16  A    between atoms: _33  and  _36
REMARK   17  A    between atoms: _36  and  _37
REMARK   18  A    between atoms: _42  and  _44
REMARK   19  A    between atoms: _44  and  _45
REMARK   20  A    between atoms: _44  and  _47
REMARK   21  A    between atoms: _47  and  _48
REMARK   22  A    between atoms: _48  and  _49
REMARK   23  A    between atoms: _51  and  _53
REMARK   24  A    between atoms: _53  and  _54
REMARK   25  A    between atoms: _53  and  _56
REMARK   26  A    between atoms: _56  and  _57
REMARK   27  A    between atoms: _57  and  _58
REMARK   28  A    between atoms: _58  and  _59
REMARK   29  A    between atoms: _68  and  _70
REMARK   30  A    between atoms: _70  and  _71
REMARK   31  A    between atoms: _70  and  _73
REMARK   32  A    between atoms: _73  and  _74
REMARK   33  A    between atoms: _79  and  _81
REMARK   34  A    between atoms: _81  and  _82
REMARK   35  A    between atoms: _84  and  _86
REMARK   36  A    between atoms: _86  and  _87
REMARK   37  A    between atoms: _86  and  _89
REMARK   38  A    between atoms: _89  and  _90
REMARK   39  A    between atoms: _92  and  _94
REMARK   40  A    between atoms: _94  and  _95
REMARK   41  A    between atoms: _97  and  _99
REMARK   42  A    between atoms: _99  and  _100
REMARK   43  A    between atoms: _99  and  _102
REMARK   44  A    between atoms: _102  and  _103
REMARK   45  A    between atoms: _105  and  _107
REMARK   46  A    between atoms: _107  and  _108
REMARK   47  A    between atoms: _107  and  _110
REMARK   48  A    between atoms: _110  and  _111
REMARK   49  A    between atoms: _114  and  _116
REMARK   50  A    between atoms: _116  and  _117
REMARK   51  A    between atoms: _116  and  _119
REMARK   52  A    between atoms: _119  and  _120
REMARK   53  A    between atoms: _126  and  _128
REMARK   54  A    between atoms: _128  and  _129
REMARK   55  A    between atoms: _128  and  _131
REMARK   56  A    between atoms: _131  and  _132
REMARK   57  A    between atoms: _142  and  _144
REMARK   58  A    between atoms: _144  and  _145
REMARK   59  A    between atoms: _144  and  _147
REMARK   60  A    between atoms: _147  and  _148
REMARK   61  A    between atoms: _153  and  _154
REMARK   62  A    between atoms: _156  and  _158
REMARK   63  A    between atoms: _158  and  _159
REMARK   64  A    between atoms: _161  and  _163
REMARK   65  A    between atoms: _163  and  _164
REMARK   66  A    between atoms: _166  and  _168
REMARK   67  A    between atoms: _168  and  _169
REMARK   68  A    between atoms: _168  and  _171
REMARK   69  A    between atoms: _171  and  _172
REMARK   70  A    between atoms: _175  and  _177
REMARK   71  A    between atoms: _177  and  _178
REMARK   72  A    between atoms: _177  and  _180
REMARK   73  A    between atoms: _180  and  _181
REMARK   74  A    between atoms: _184  and  _186
REMARK   75  A    between atoms: _186  and  _187
REMARK   76  A    between atoms: _186  and  _189
REMARK   77  A    between atoms: _189  and  _190
REMARK   78  A    between atoms: _194  and  _195
REMARK   79  A    between atoms: _200  and  _202
REMARK   80  A    between atoms: _202  and  _203
REMARK   81  A    between atoms: _202  and  _205
REMARK   82  A    between atoms: _205  and  _206
REMARK   83  A    between atoms: _206  and  _207
REMARK   84  A    between atoms: _212  and  _214
REMARK   85  A    between atoms: _214  and  _215
REMARK   86  A    between atoms: _214  and  _217
REMARK   87  A    between atoms: _220  and  _222
REMARK   88  A    between atoms: _222  and  _223
REMARK   89  A    between atoms: _222  and  _225
REMARK   90  A    between atoms: _225  and  _226
REMARK   91  A    between atoms: _231  and  _232
REMARK   92  A    between atoms: _234  and  _236
REMARK   93  A    between atoms: _236  and  _237
REMARK   94  A    between atoms: _236  and  _239
REMARK   95  A    between atoms: _239  and  _240
REMARK   96  A    between atoms: _243  and  _245
REMARK   97  A    between atoms: _245  and  _246
REMARK   98  A    between atoms: _248  and  _250
REMARK   99  A    between atoms: _250  and  _251
REMARK  100  A    between atoms: _250  and  _253
REMARK  101  A    between atoms: _253  and  _254
REMARK  102  A    between atoms: _257  and  _259
REMARK  103  A    between atoms: _259  and  _260
REMARK  104  A    between atoms: _263  and  _265
REMARK  105  A    between atoms: _265  and  _266
REMARK  106  A    between atoms: _265  and  _268
REMARK  107  A    between atoms: _268  and  _269
REMARK  108  A    between atoms: _272  and  _274
REMARK  109  A    between atoms: _274  and  _275
REMARK  110  A    between atoms: _274  and  _277
REMARK  111  A    between atoms: _277  and  _278
REMARK  112  A    between atoms: _280  and  _282
REMARK  113  A    between atoms: _282  and  _283
REMARK  114  A    between atoms: _282  and  _285
REMARK  115  A    between atoms: _285  and  _286
REMARK  116  A    between atoms: _288  and  _290
REMARK  117  A    between atoms: _290  and  _291
REMARK  118  A    between atoms: _293  and  _295
REMARK  119  A    between atoms: _295  and  _296
REMARK  120  A    between atoms: _295  and  _298
REMARK  121  A    between atoms: _298  and  _299
REMARK  122  A    between atoms: _302  and  _304
REMARK  123  A    between atoms: _304  and  _305
REMARK  124  A    between atoms: _308  and  _310
REMARK  125  A    between atoms: _310  and  _311
REMARK  126  A    between atoms: _310  and  _313
REMARK  127  A    between atoms: _313  and  _314
REMARK  128  A    between atoms: _319  and  _320
REMARK  129  A    between atoms: _322  and  _324
REMARK  130  A    between atoms: _324  and  _325
REMARK  131  A    between atoms: _324  and  _327
REMARK  132  A    between atoms: _327  and  _328
REMARK  133  A    between atoms: _331  and  _333
REMARK  134  A    between atoms: _333  and  _334
REMARK  135  A    between atoms: _337  and  _339
REMARK  136  A    between atoms: _339  and  _340
REMARK  137  A    between atoms: _339  and  _342
REMARK  138  A    between atoms: _342  and  _343
REMARK  139  A    between atoms: _346  and  _348
REMARK  140  A    between atoms: _348  and  _349
REMARK  141  A    between atoms: _348  and  _351
REMARK  142  A    between atoms: _351  and  _352
REMARK  143  A    between atoms: _352  and  _353
REMARK  144  A    between atoms: _353  and  _354
REMARK  145  A    between atoms: _354  and  _355
REMARK  146  A    between atoms: _359  and  _361
REMARK  147  A    between atoms: _361  and  _362
REMARK  148  A    between atoms: _361  and  _364
REMARK  149  A    between atoms: _364  and  _365
REMARK  150  A    between atoms: _367  and  _369
REMARK  151  A    between atoms: _369  and  _370
REMARK  152  A    between atoms: _372  and  _374
REMARK  153  A    between atoms: _374  and  _375
REMARK  154  A    between atoms: _374  and  _377
REMARK  155  A    between atoms: _377  and  _378
REMARK  156  A    between atoms: _381  and  _383
REMARK  157  A    between atoms: _383  and  _384
REMARK  158  A    between atoms: _383  and  _386
REMARK  159  A    between atoms: _386  and  _387
REMARK  160  A    between atoms: _390  and  _392
REMARK  161  A    between atoms: _392  and  _393
REMARK  162  A    between atoms: _396  and  _398
REMARK  163  A    between atoms: _398  and  _399
REMARK  164  A    between atoms: _401  and  _403
REMARK  165  A    between atoms: _403  and  _404
REMARK  166  A    between atoms: _403  and  _406
REMARK  167  A    between atoms: _406  and  _407
REMARK  168  A    between atoms: _413  and  _415
REMARK  169  A    between atoms: _415  and  _416
REMARK  170  A    between atoms: _415  and  _418
REMARK  171  A    between atoms: _418  and  _419
REMARK  172  A    between atoms: _422  and  _424
REMARK  173  A    between atoms: _424  and  _425
REMARK  174  A    between atoms: _424  and  _427
REMARK  175  A    between atoms: _427  and  _428
REMARK  176  A    between atoms: _433  and  _435
REMARK  177  A    between atoms: _435  and  _436
REMARK  178  A    between atoms: _435  and  _438
REMARK  179  A    between atoms: _438  and  _439
REMARK  180  A    between atoms: _442  and  _444
REMARK  181  A    between atoms: _444  and  _445
REMARK  182  A    between atoms: _444  and  _447
REMARK  183  A    between atoms: _447  and  _448
REMARK  184  A    between atoms: _453  and  _454
REMARK  185  A    between atoms: _456  and  _458
REMARK  186  A    between atoms: _458  and  _459
REMARK  187  A    between atoms: _458  and  _461
REMARK  188  A    between atoms: _461  and  _462
REMARK  189  A    between atoms: _465  and  _467
REMARK  190  A    between atoms: _467  and  _468
REMARK  191  A    between atoms: _467  and  _470
REMARK  192  A    between atoms: _470  and  _471
REMARK  193  A    between atoms: _471  and  _472
REMARK  194  A    between atoms: _475  and  _477
REMARK  195  A    between atoms: _477  and  _478
REMARK  196  A    between atoms: _477  and  _480
REMARK  197  A    between atoms: _480  and  _481
REMARK  198  A    between atoms: _484  and  _486
REMARK  199  A    between atoms: _486  and  _487
REMARK  200  A    between atoms: _489  and  _491
REMARK  201  A    between atoms: _491  and  _492
REMARK  202  A    between atoms: _494  and  _496
REMARK  203  A    between atoms: _496  and  _497
REMARK  204  A    between atoms: _496  and  _499
REMARK  205  A    between atoms: _499  and  _500
REMARK  206  A    between atoms: _500  and  _501
REMARK  207  A    between atoms: _506  and  _508
REMARK  208  A    between atoms: _508  and  _509
REMARK  209  A    between atoms: _512  and  _514
REMARK  210  A    between atoms: _514  and  _515
REMARK  211  A    between atoms: _514  and  _517
REMARK  212  A    between atoms: _517  and  _518
REMARK  213  A    between atoms: _521  and  _523
REMARK  214  A    between atoms: _523  and  _524
REMARK  215  A    between atoms: _523  and  _526
REMARK  216  A    between atoms: _526  and  _527
REMARK  217  A    between atoms: _527  and  _528
REMARK  218  A    between atoms: _533  and  _535
REMARK  219  A    between atoms: _535  and  _536
REMARK  220  A    between atoms: _535  and  _538
REMARK  221  A    between atoms: _538  and  _539
REMARK  222  A    between atoms: _542  and  _544
REMARK  223  A    between atoms: _544  and  _545
REMARK  224  A    between atoms: _544  and  _547
REMARK  225  A    between atoms: _547  and  _548
REMARK  226  A    between atoms: _548  and  _549
REMARK  227  A    between atoms: _549  and  _550
REMARK                            x       y       z     vdW  Elec       q    Type
REMARK                         _______ _______ _______ _____ _____    ______ ____
ROOT
ATOM      1  O   HOH     1      -8.929  -6.647   1.187  0.00  0.00    +0.000 OA
ENDROOT
TORSDOF 0
REMARK  Name = ../refined-set-2016/4r75/4r75_pocket.pdb
REMARK  227 active torsions:
REMARK  status: ('A' for Active; 'I' for Inactive)
REMARK    1  A    between atoms: _1  and  _3
REMARK    2  A    between atoms: _3  and  _4
REMARK    3  A    between atoms: _3  and  _6
REMARK    4  A    between atoms: _8  and  _10
REMARK    5  A    between atoms: _10  and  _11
REMARK    6  A    between atoms: _10  and  _13
REMARK    7  A    between atoms: _13  and  _14
REMARK    8  A    between atoms: _16  and  _18
REMARK    9  A    between atoms: _18  and  _19
REMARK   10  A    between atoms: _22  and  _24
REMARK   11  A    between atoms: _24  and  _25
REMARK   12  A    between atoms: _24  and  _27
REMARK   13  A    between atoms: _27  and  _28
REMARK   14  A    between atoms: _31  and  _33
REMARK   15  A    between atoms: _33  and  _34
REMARK   16  A    between atoms: _33  and  _36
REMARK   17  A    between atoms: _36  and  _37
REMARK   18  A    between atoms: _42  and  _44
REMARK   19  A    between atoms: _44  and  _45
REMARK   20  A    between atoms: _44  and  _47
REMARK   21  A    between atoms: _47  and  _48
REMARK   22  A    between atoms: _48  and  _49
REMARK   23  A    between atoms: _51  and  _53
REMARK   24  A    between atoms: _53  and  _54
REMARK   25  A    between atoms: _53  and  _56
REMARK   26  A    between atoms: _56  and  _57
REMARK   27  A    between atoms: _57  and  _58
REMARK   28  A    between atoms: _58  and  _59
REMARK   29  A    between atoms: _68  and  _70
REMARK   30  A    between atoms: _70  and  _71
REMARK   31  A    between atoms: _70  and  _73
REMARK   32  A    between atoms: _73  and  _74
REMARK   33  A    between atoms: _79  and  _81
REMARK   34  A    between atoms: _81  and  _82
REMARK   35  A    between atoms: _84  and  _86
REMARK   36  A    between atoms: _86  and  _87
REMARK   37  A    between atoms: _86  and  _89
REMARK   38  A    between atoms: _89  and  _90
REMARK   39  A    between atoms: _92  and  _94
REMARK   40  A    between atoms: _94  and  _95
REMARK   41  A    between atoms: _97  and  _99
REMARK   42  A    between atoms: _99  and  _100
REMARK   43  A    between atoms: _99  and  _102
REMARK   44  A    between atoms: _102  and  _103
REMARK   45  A    between atoms: _105  and  _107
REMARK   46  A    between atoms: _107  and  _108
REMARK   47  A    between atoms: _107  and  _110
REMARK   48  A    between atoms: _110  and  _111
REMARK   49  A    between atoms: _114  and  _116
REMARK   50  A    between atoms: _116  and  _117
REMARK   51  A    between atoms: _116  and  _119
REMARK   52  A    between atoms: _119  and  _120
REMARK   53  A    between atoms: _126  and  _128
REMARK   54  A    between atoms: _128  and  _129
REMARK   55  A    between atoms: _128  and  _131
REMARK   56  A    between atoms: _131  and  _132
REMARK   57  A    between atoms: _142  and  _144
REMARK   58  A    between atoms: _144  and  _145
REMARK   59  A    between atoms: _144  and  _147
REMARK   60  A    between atoms: _147  and  _148
REMARK   61  A    between atoms: _153  and  _154
REMARK   62  A    between atoms: _156  and  _158
REMARK   63  A    between atoms: _158  and  _159
REMARK   64  A    between atoms: _161  and  _163
REMARK   65  A    between atoms: _163  and  _164
REMARK   66  A    between atoms: _166  and  _168
REMARK   67  A    between atoms: _168  and  _169
REMARK   68  A    between atoms: _168  and  _171
REMARK   69  A    between atoms: _171  and  _172
REMARK   70  A    between atoms: _175  and  _177
REMARK   71  A    between atoms: _177  and  _178
REMARK   72  A    between atoms: _177  and  _180
REMARK   73  A    between atoms: _180  and  _181
REMARK   74  A    between atoms: _184  and  _186
REMARK   75  A    between atoms: _186  and  _187
REMARK   76  A    between atoms: _186  and  _189
REMARK   77  A    between atoms: _189  and  _190
REMARK   78  A    between atoms: _194  and  _195
REMARK   79  A    between atoms: _200  and  _202
REMARK   80  A    between atoms: _202  and  _203
REMARK   81  A    between atoms: _202  and  _205
REMARK   82  A    between atoms: _205  and  _206
REMARK   83  A    between atoms: _206  and  _207
REMARK   84  A    between atoms: _212  and  _214
REMARK   85  A    between atoms: _214  and  _215
REMARK   86  A    between atoms: _214  and  _217
REMARK   87  A    between atoms: _220  and  _222
REMARK   88  A    between atoms: _222  and  _223
REMARK   89  A    between atoms: _222  and  _225
REMARK   90  A    between atoms: _225  and  _226
REMARK   91  A    between atoms: _231  and  _232
REMARK   92  A    between atoms: _234  and  _236
REMARK   93  A    between atoms: _236  and  _237
REMARK   94  A    between atoms: _236  and  _239
REMARK   95  A    between atoms: _239  and  _240
REMARK   96  A    between atoms: _243  and  _245
REMARK   97  A    between atoms: _245  and  _246
REMARK   98  A    between atoms: _248  and  _250
REMARK   99  A    between atoms: _250  and  _251
REMARK  100  A    between atoms: _250  and  _253
REMARK  101  A    between atoms: _253  and  _254
REMARK  102  A    between atoms: _257  and  _259
REMARK  103  A    between atoms: _259  and  _260
REMARK  104  A    between atoms: _263  and  _265
REMARK  105  A    between atoms: _265  and  _266
REMARK  106  A    between atoms: _265  and  _268
REMARK  107  A    between atoms: _268  and  _269
REMARK  108  A    between atoms: _272  and  _274
REMARK  109  A    between atoms: _274  and  _275
REMARK  110  A    between atoms: _274  and  _277
REMARK  111  A    between atoms: _277  and  _278
REMARK  112  A    between atoms: _280  and  _282
REMARK  113  A    between atoms: _282  and  _283
REMARK  114  A    between atoms: _282  and  _285
REMARK  115  A    between atoms: _285  and  _286
REMARK  116  A    between atoms: _288  and  _290
REMARK  117  A    between atoms: _290  and  _291
REMARK  118  A    between atoms: _293  and  _295
REMARK  119  A    between atoms: _295  and  _296
REMARK  120  A    between atoms: _295  and  _298
REMARK  121  A    between atoms: _298  and  _299
REMARK  122  A    between atoms: _302  and  _304
REMARK  123  A    between atoms: _304  and  _305
REMARK  124  A    between atoms: _308  and  _310
REMARK  125  A    between atoms: _310  and  _311
REMARK  126  A    between atoms: _310  and  _313
REMARK  127  A    between atoms: _313  and  _314
REMARK  128  A    between atoms: _319  and  _320
REMARK  129  A    between atoms: _322  and  _324
REMARK  130  A    between atoms: _324  and  _325
REMARK  131  A    between atoms: _324  and  _327
REMARK  132  A    between atoms: _327  and  _328
REMARK  133  A    between atoms: _331  and  _333
REMARK  134  A    between atoms: _333  and  _334
REMARK  135  A    between atoms: _337  and  _339
REMARK  136  A    between atoms: _339  and  _340
REMARK  137  A    between atoms: _339  and  _342
REMARK  138  A    between atoms: _342  and  _343
REMARK  139  A    between atoms: _346  and  _348
REMARK  140  A    between atoms: _348  and  _349
REMARK  141  A    between atoms: _348  and  _351
REMARK  142  A    between atoms: _351  and  _352
REMARK  143  A    between atoms: _352  and  _353
REMARK  144  A    between atoms: _353  and  _354
REMARK  145  A    between atoms: _354  and  _355
REMARK  146  A    between atoms: _359  and  _361
REMARK  147  A    between atoms: _361  and  _362
REMARK  148  A    between atoms: _361  and  _364
REMARK  149  A    between atoms: _364  and  _365
REMARK  150  A    between atoms: _367  and  _369
REMARK  151  A    between atoms: _369  and  _370
REMARK  152  A    between atoms: _372  and  _374
REMARK  153  A    between atoms: _374  and  _375
REMARK  154  A    between atoms: _374  and  _377
REMARK  155  A    between atoms: _377  and  _378
REMARK  156  A    between atoms: _381  and  _383
REMARK  157  A    between atoms: _383  and  _384
REMARK  158  A    between atoms: _383  and  _386
REMARK  159  A    between atoms: _386  and  _387
REMARK  160  A    between atoms: _390  and  _392
REMARK  161  A    between atoms: _392  and  _393
REMARK  162  A    between atoms: _396  and  _398
REMARK  163  A    between atoms: _398  and  _399
REMARK  164  A    between atoms: _401  and  _403
REMARK  165  A    between atoms: _403  and  _404
REMARK  166  A    between atoms: _403  and  _406
REMARK  167  A    between atoms: _406  and  _407
REMARK  168  A    between atoms: _413  and  _415
REMARK  169  A    between atoms: _415  and  _416
REMARK  170  A    between atoms: _415  and  _418
REMARK  171  A    between atoms: _418  and  _419
REMARK  172  A    between atoms: _422  and  _424
REMARK  173  A    between atoms: _424  and  _425
REMARK  174  A    between atoms: _424  and  _427
REMARK  175  A    between atoms: _427  and  _428
REMARK  176  A    between atoms: _433  and  _435
REMARK  177  A    between atoms: _435  and  _436
REMARK  178  A    between atoms: _435  and  _438
REMARK  179  A    between atoms: _438  and  _439
REMARK  180  A    between atoms: _442  and  _444
REMARK  181  A    between atoms: _444  and  _445
REMARK  182  A    between atoms: _444  and  _447
REMARK  183  A    between atoms: _447  and  _448
REMARK  184  A    between atoms: _453  and  _454
REMARK  185  A    between atoms: _456  and  _458
REMARK  186  A    between atoms: _458  and  _459
REMARK  187  A    between atoms: _458  and  _461
REMARK  188  A    between atoms: _461  and  _462
REMARK  189  A    between atoms: _465  and  _467
REMARK  190  A    between atoms: _467  and  _468
REMARK  191  A    between atoms: _467  and  _470
REMARK  192  A    between atoms: _470  and  _471
REMARK  193  A    between atoms: _471  and  _472
REMARK  194  A    between atoms: _475  and  _477
REMARK  195  A    between atoms: _477  and  _478
REMARK  196  A    between atoms: _477  and  _480
REMARK  197  A    between atoms: _480  and  _481
REMARK  198  A    between atoms: _484  and  _486
REMARK  199  A    between atoms: _486  and  _487
REMARK  200  A    between atoms: _489  and  _491
REMARK  201  A    between atoms: _491  and  _492
REMARK  202  A    between atoms: _494  and  _496
REMARK  203  A    between atoms: _496  and  _497
REMARK  204  A    between atoms: _496  and  _499
REMARK  205  A    between atoms: _499  and  _500
REMARK  206  A    between atoms: _500  and  _501
REMARK  207  A    between atoms: _506  and  _508
REMARK  208  A    between atoms: _508  and  _509
REMARK  209  A    between atoms: _512  and  _514
REMARK  210  A    between atoms: _514  and  _515
REMARK  211  A    between atoms: _514  and  _517
REMARK  212  A    between atoms: _517  and  _518
REMARK  213  A    between atoms: _521  and  _523
REMARK  214  A    between atoms: _523  and  _524
REMARK  215  A    between atoms: _523  and  _526
REMARK  216  A    between atoms: _526  and  _527
REMARK  217  A    between atoms: _527  and  _528
REMARK  218  A    between atoms: _533  and  _535
REMARK  219  A    between atoms: _535  and  _536
REMARK  220  A    between atoms: _535  and  _538
REMARK  221  A    between atoms: _538  and  _539
REMARK  222  A    between atoms: _542  and  _544
REMARK  223  A    between atoms: _544  and  _545
REMARK  224  A    between atoms: _544  and  _547
REMARK  225  A    between atoms: _547  and  _548
REMARK  226  A    between atoms: _548  and  _549
REMARK  227  A    between atoms: _549  and  _550
REMARK                            x       y       z     vdW  Elec       q    Type
REMARK                         _______ _______ _______ _____ _____    ______ ____
ROOT
ATOM      1  O   HOH     1      -6.925  -5.765   1.992  0.00  0.00    +0.000 OA
ENDROOT
TORSDOF 0
REMARK  Name = ../refined-set-2016/4r75/4r75_pocket.pdb
REMARK  227 active torsions:
REMARK  status: ('A' for Active; 'I' for Inactive)
REMARK    1  A    between atoms: _1  and  _3
REMARK    2  A    between atoms: _3  and  _4
REMARK    3  A    between atoms: _3  and  _6
REMARK    4  A    between atoms: _8  and  _10
REMARK    5  A    between atoms: _10  and  _11
REMARK    6  A    between atoms: _10  and  _13
REMARK    7  A    between atoms: _13  and  _14
REMARK    8  A    between atoms: _16  and  _18
REMARK    9  A    between atoms: _18  and  _19
REMARK   10  A    between atoms: _22  and  _24
REMARK   11  A    between atoms: _24  and  _25
REMARK   12  A    between atoms: _24  and  _27
REMARK   13  A    between atoms: _27  and  _28
REMARK   14  A    between atoms: _31  and  _33
REMARK   15  A    between atoms: _33  and  _34
REMARK   16  A    between atoms: _33  and  _36
REMARK   17  A    between atoms: _36  and  _37
REMARK   18  A    between atoms: _42  and  _44
REMARK   19  A    between atoms: _44  and  _45
REMARK   20  A    between atoms: _44  and  _47
REMARK   21  A    between atoms: _47  and  _48
REMARK   22  A    between atoms: _48  and  _49
REMARK   23  A    between atoms: _51  and  _53
REMARK   24  A    between atoms: _53  and  _54
REMARK   25  A    between atoms: _53  and  _56
REMARK   26  A    between atoms: _56  and  _57
REMARK   27  A    between atoms: _57  and  _58
REMARK   28  A    between atoms: _58  and  _59
REMARK   29  A    between atoms: _68  and  _70
REMARK   30  A    between atoms: _70  and  _71
REMARK   31  A    between atoms: _70  and  _73
REMARK   32  A    between atoms: _73  and  _74
REMARK   33  A    between atoms: _79  and  _81
REMARK   34  A    between atoms: _81  and  _82
REMARK   35  A    between atoms: _84  and  _86
REMARK   36  A    between atoms: _86  and  _87
REMARK   37  A    between atoms: _86  and  _89
REMARK   38  A    between atoms: _89  and  _90
REMARK   39  A    between atoms: _92  and  _94
REMARK   40  A    between atoms: _94  and  _95
REMARK   41  A    between atoms: _97  and  _99
REMARK   42  A    between atoms: _99  and  _100
REMARK   43  A    between atoms: _99  and  _102
REMARK   44  A    between atoms: _102  and  _103
REMARK   45  A    between atoms: _105  and  _107
REMARK   46  A    between atoms: _107  and  _108
REMARK   47  A    between atoms: _107  and  _110
REMARK   48  A    between atoms: _110  and  _111
REMARK   49  A    between atoms: _114  and  _116
REMARK   50  A    between atoms: _116  and  _117
REMARK   51  A    between atoms: _116  and  _119
REMARK   52  A    between atoms: _119  and  _120
REMARK   53  A    between atoms: _126  and  _128
REMARK   54  A    between atoms: _128  and  _129
REMARK   55  A    between atoms: _128  and  _131
REMARK   56  A    between atoms: _131  and  _132
REMARK   57  A    between atoms: _142  and  _144
REMARK   58  A    between atoms: _144  and  _145
REMARK   59  A    between atoms: _144  and  _147
REMARK   60  A    between atoms: _147  and  _148
REMARK   61  A    between atoms: _153  and  _154
REMARK   62  A    between atoms: _156  and  _158
REMARK   63  A    between atoms: _158  and  _159
REMARK   64  A    between atoms: _161  and  _163
REMARK   65  A    between atoms: _163  and  _164
REMARK   66  A    between atoms: _166  and  _168
REMARK   67  A    between atoms: _168  and  _169
REMARK   68  A    between atoms: _168  and  _171
REMARK   69  A    between atoms: _171  and  _172
REMARK   70  A    between atoms: _175  and  _177
REMARK   71  A    between atoms: _177  and  _178
REMARK   72  A    between atoms: _177  and  _180
REMARK   73  A    between atoms: _180  and  _181
REMARK   74  A    between atoms: _184  and  _186
REMARK   75  A    between atoms: _186  and  _187
REMARK   76  A    between atoms: _186  and  _189
REMARK   77  A    between atoms: _189  and  _190
REMARK   78  A    between atoms: _194  and  _195
REMARK   79  A    between atoms: _200  and  _202
REMARK   80  A    between atoms: _202  and  _203
REMARK   81  A    between atoms: _202  and  _205
REMARK   82  A    between atoms: _205  and  _206
REMARK   83  A    between atoms: _206  and  _207
REMARK   84  A    between atoms: _212  and  _214
REMARK   85  A    between atoms: _214  and  _215
REMARK   86  A    between atoms: _214  and  _217
REMARK   87  A    between atoms: _220  and  _222
REMARK   88  A    between atoms: _222  and  _223
REMARK   89  A    between atoms: _222  and  _225
REMARK   90  A    between atoms: _225  and  _226
REMARK   91  A    between atoms: _231  and  _232
REMARK   92  A    between atoms: _234  and  _236
REMARK   93  A    between atoms: _236  and  _237
REMARK   94  A    between atoms: _236  and  _239
REMARK   95  A    between atoms: _239  and  _240
REMARK   96  A    between atoms: _243  and  _245
REMARK   97  A    between atoms: _245  and  _246
REMARK   98  A    between atoms: _248  and  _250
REMARK   99  A    between atoms: _250  and  _251
REMARK  100  A    between atoms: _250  and  _253
REMARK  101  A    between atoms: _253  and  _254
REMARK  102  A    between atoms: _257  and  _259
REMARK  103  A    between atoms: _259  and  _260
REMARK  104  A    between atoms: _263  and  _265
REMARK  105  A    between atoms: _265  and  _266
REMARK  106  A    between atoms: _265  and  _268
REMARK  107  A    between atoms: _268  and  _269
REMARK  108  A    between atoms: _272  and  _274
REMARK  109  A    between atoms: _274  and  _275
REMARK  110  A    between atoms: _274  and  _277
REMARK  111  A    between atoms: _277  and  _278
REMARK  112  A    between atoms: _280  and  _282
REMARK  113  A    between atoms: _282  and  _283
REMARK  114  A    between atoms: _282  and  _285
REMARK  115  A    between atoms: _285  and  _286
REMARK  116  A    between atoms: _288  and  _290
REMARK  117  A    between atoms: _290  and  _291
REMARK  118  A    between atoms: _293  and  _295
REMARK  119  A    between atoms: _295  and  _296
REMARK  120  A    between atoms: _295  and  _298
REMARK  121  A    between atoms: _298  and  _299
REMARK  122  A    between atoms: _302  and  _304
REMARK  123  A    between atoms: _304  and  _305
REMARK  124  A    between atoms: _308  and  _310
REMARK  125  A    between atoms: _310  and  _311
REMARK  126  A    between atoms: _310  and  _313
REMARK  127  A    between atoms: _313  and  _314
REMARK  128  A    between atoms: _319  and  _320
REMARK  129  A    between atoms: _322  and  _324
REMARK  130  A    between atoms: _324  and  _325
REMARK  131  A    between atoms: _324  and  _327
REMARK  132  A    between atoms: _327  and  _328
REMARK  133  A    between atoms: _331  and  _333
REMARK  134  A    between atoms: _333  and  _334
REMARK  135  A    between atoms: _337  and  _339
REMARK  136  A    between atoms: _339  and  _340
REMARK  137  A    between atoms: _339  and  _342
REMARK  138  A    between atoms: _342  and  _343
REMARK  139  A    between atoms: _346  and  _348
REMARK  140  A    between atoms: _348  and  _349
REMARK  141  A    between atoms: _348  and  _351
REMARK  142  A    between atoms: _351  and  _352
REMARK  143  A    between atoms: _352  and  _353
REMARK  144  A    between atoms: _353  and  _354
REMARK  145  A    between atoms: _354  and  _355
REMARK  146  A    between atoms: _359  and  _361
REMARK  147  A    between atoms: _361  and  _362
REMARK  148  A    between atoms: _361  and  _364
REMARK  149  A    between atoms: _364  and  _365
REMARK  150  A    between atoms: _367  and  _369
REMARK  151  A    between atoms: _369  and  _370
REMARK  152  A    between atoms: _372  and  _374
REMARK  153  A    between atoms: _374  and  _375
REMARK  154  A    between atoms: _374  and  _377
REMARK  155  A    between atoms: _377  and  _378
REMARK  156  A    between atoms: _381  and  _383
REMARK  157  A    between atoms: _383  and  _384
REMARK  158  A    between atoms: _383  and  _386
REMARK  159  A    between atoms: _386  and  _387
REMARK  160  A    between atoms: _390  and  _392
REMARK  161  A    between atoms: _392  and  _393
REMARK  162  A    between atoms: _396  and  _398
REMARK  163  A    between atoms: _398  and  _399
REMARK  164  A    between atoms: _401  and  _403
REMARK  165  A    between atoms: _403  and  _404
REMARK  166  A    between atoms: _403  and  _406
REMARK  167  A    between atoms: _406  and  _407
REMARK  168  A    between atoms: _413  and  _415
REMARK  169  A    between atoms: _415  and  _416
REMARK  170  A    between atoms: _415  and  _418
REMARK  171  A    between atoms: _418  and  _419
REMARK  172  A    between atoms: _422  and  _424
REMARK  173  A    between atoms: _424  and  _425
REMARK  174  A    between atoms: _424  and  _427
REMARK  175  A    between atoms: _427  and  _428
REMARK  176  A    between atoms: _433  and  _435
REMARK  177  A    between atoms: _435  and  _436
REMARK  178  A    between atoms: _435  and  _438
REMARK  179  A    between atoms: _438  and  _439
REMARK  180  A    between atoms: _442  and  _444
REMARK  181  A    between atoms: _444  and  _445
REMARK  182  A    between atoms: _444  and  _447
REMARK  183  A    between atoms: _447  and  _448
REMARK  184  A    between atoms: _453  and  _454
REMARK  185  A    between atoms: _456  and  _458
REMARK  186  A    between atoms: _458  and  _459
REMARK  187  A    between atoms: _458  and  _461
REMARK  188  A    between atoms: _461  and  _462
REMARK  189  A    between atoms: _465  and  _467
REMARK  190  A    between atoms: _467  and  _468
REMARK  191  A    between atoms: _467  and  _470
REMARK  192  A    between atoms: _470  and  _471
REMARK  193  A    between atoms: _471  and  _472
REMARK  194  A    between atoms: _475  and  _477
REMARK  195  A    between atoms: _477  and  _478
REMARK  196  A    between atoms: _477  and  _480
REMARK  197  A    between atoms: _480  and  _481
REMARK  198  A    between atoms: _484  and  _486
REMARK  199  A    between atoms: _486  and  _487
REMARK  200  A    between atoms: _489  and  _491
REMARK  201  A    between atoms: _491  and  _492
REMARK  202  A    between atoms: _494  and  _496
REMARK  203  A    between atoms: _496  and  _497
REMARK  204  A    between atoms: _496  and  _499
REMARK  205  A    between atoms: _499  and  _500
REMARK  206  A    between atoms: _500  and  _501
REMARK  207  A    between atoms: _506  and  _508
REMARK  208  A    between atoms: _508  and  _509
REMARK  209  A    between atoms: _512  and  _514
REMARK  210  A    between atoms: _514  and  _515
REMARK  211  A    between atoms: _514  and  _517
REMARK  212  A    between atoms: _517  and  _518
REMARK  213  A    between atoms: _521  and  _523
REMARK  214  A    between atoms: _523  and  _524
REMARK  215  A    between atoms: _523  and  _526
REMARK  216  A    between atoms: _526  and  _527
REMARK  217  A    between atoms: _527  and  _528
REMARK  218  A    between atoms: _533  and  _535
REMARK  219  A    between atoms: _535  and  _536
REMARK  220  A    between atoms: _535  and  _538
REMARK  221  A    between atoms: _538  and  _539
REMARK  222  A    between atoms: _542  and  _544
REMARK  223  A    between atoms: _544  and  _545
REMARK  224  A    between atoms: _544  and  _547
REMARK  225  A    between atoms: _547  and  _548
REMARK  226  A    between atoms: _548  and  _549
REMARK  227  A    between atoms: _549  and  _550
REMARK                            x       y       z     vdW  Elec       q    Type
REMARK                         _______ _______ _______ _____ _____    ______ ____
ROOT
ATOM      1  O   HOH     1      -9.802  -9.454   2.453  0.00  0.00    +0.000 OA
ENDROOT
TORSDOF 0
REMARK  Name = ../refined-set-2016/4r75/4r75_pocket.pdb
REMARK  227 active torsions:
REMARK  status: ('A' for Active; 'I' for Inactive)
REMARK    1  A    between atoms: _1  and  _3
REMARK    2  A    between atoms: _3  and  _4
REMARK    3  A    between atoms: _3  and  _6
REMARK    4  A    between atoms: _8  and  _10
REMARK    5  A    between atoms: _10  and  _11
REMARK    6  A    between atoms: _10  and  _13
REMARK    7  A    between atoms: _13  and  _14
REMARK    8  A    between atoms: _16  and  _18
REMARK    9  A    between atoms: _18  and  _19
REMARK   10  A    between atoms: _22  and  _24
REMARK   11  A    between atoms: _24  and  _25
REMARK   12  A    between atoms: _24  and  _27
REMARK   13  A    between atoms: _27  and  _28
REMARK   14  A    between atoms: _31  and  _33
REMARK   15  A    between atoms: _33  and  _34
REMARK   16  A    between atoms: _33  and  _36
REMARK   17  A    between atoms: _36  and  _37
REMARK   18  A    between atoms: _42  and  _44
REMARK   19  A    between atoms: _44  and  _45
REMARK   20  A    between atoms: _44  and  _47
REMARK   21  A    between atoms: _47  and  _48
REMARK   22  A    between atoms: _48  and  _49
REMARK   23  A    between atoms: _51  and  _53
REMARK   24  A    between atoms: _53  and  _54
REMARK   25  A    between atoms: _53  and  _56
REMARK   26  A    between atoms: _56  and  _57
REMARK   27  A    between atoms: _57  and  _58
REMARK   28  A    between atoms: _58  and  _59
REMARK   29  A    between atoms: _68  and  _70
REMARK   30  A    between atoms: _70  and  _71
REMARK   31  A    between atoms: _70  and  _73
REMARK   32  A    between atoms: _73  and  _74
REMARK   33  A    between atoms: _79  and  _81
REMARK   34  A    between atoms: _81  and  _82
REMARK   35  A    between atoms: _84  and  _86
REMARK   36  A    between atoms: _86  and  _87
REMARK   37  A    between atoms: _86  and  _89
REMARK   38  A    between atoms: _89  and  _90
REMARK   39  A    between atoms: _92  and  _94
REMARK   40  A    between atoms: _94  and  _95
REMARK   41  A    between atoms: _97  and  _99
REMARK   42  A    between atoms: _99  and  _100
REMARK   43  A    between atoms: _99  and  _102
REMARK   44  A    between atoms: _102  and  _103
REMARK   45  A    between atoms: _105  and  _107
REMARK   46  A    between atoms: _107  and  _108
REMARK   47  A    between atoms: _107  and  _110
REMARK   48  A    between atoms: _110  and  _111
REMARK   49  A    between atoms: _114  and  _116
REMARK   50  A    between atoms: _116  and  _117
REMARK   51  A    between atoms: _116  and  _119
REMARK   52  A    between atoms: _119  and  _120
REMARK   53  A    between atoms: _126  and  _128
REMARK   54  A    between atoms: _128  and  _129
REMARK   55  A    between atoms: _128  and  _131
REMARK   56  A    between atoms: _131  and  _132
REMARK   57  A    between atoms: _142  and  _144
REMARK   58  A    between atoms: _144  and  _145
REMARK   59  A    between atoms: _144  and  _147
REMARK   60  A    between atoms: _147  and  _148
REMARK   61  A    between atoms: _153  and  _154
REMARK   62  A    between atoms: _156  and  _158
REMARK   63  A    between atoms: _158  and  _159
REMARK   64  A    between atoms: _161  and  _163
REMARK   65  A    between atoms: _163  and  _164
REMARK   66  A    between atoms: _166  and  _168
REMARK   67  A    between atoms: _168  and  _169
REMARK   68  A    between atoms: _168  and  _171
REMARK   69  A    between atoms: _171  and  _172
REMARK   70  A    between atoms: _175  and  _177
REMARK   71  A    between atoms: _177  and  _178
REMARK   72  A    between atoms: _177  and  _180
REMARK   73  A    between atoms: _180  and  _181
REMARK   74  A    between atoms: _184  and  _186
REMARK   75  A    between atoms: _186  and  _187
REMARK   76  A    between atoms: _186  and  _189
REMARK   77  A    between atoms: _189  and  _190
REMARK   78  A    between atoms: _194  and  _195
REMARK   79  A    between atoms: _200  and  _202
REMARK   80  A    between atoms: _202  and  _203
REMARK   81  A    between atoms: _202  and  _205
REMARK   82  A    between atoms: _205  and  _206
REMARK   83  A    between atoms: _206  and  _207
REMARK   84  A    between atoms: _212  and  _214
REMARK   85  A    between atoms: _214  and  _215
REMARK   86  A    between atoms: _214  and  _217
REMARK   87  A    between atoms: _220  and  _222
REMARK   88  A    between atoms: _222  and  _223
REMARK   89  A    between atoms: _222  and  _225
REMARK   90  A    between atoms: _225  and  _226
REMARK   91  A    between atoms: _231  and  _232
REMARK   92  A    between atoms: _234  and  _236
REMARK   93  A    between atoms: _236  and  _237
REMARK   94  A    between atoms: _236  and  _239
REMARK   95  A    between atoms: _239  and  _240
REMARK   96  A    between atoms: _243  and  _245
REMARK   97  A    between atoms: _245  and  _246
REMARK   98  A    between atoms: _248  and  _250
REMARK   99  A    between atoms: _250  and  _251
REMARK  100  A    between atoms: _250  and  _253
REMARK  101  A    between atoms: _253  and  _254
REMARK  102  A    between atoms: _257  and  _259
REMARK  103  A    between atoms: _259  and  _260
REMARK  104  A    between atoms: _263  and  _265
REMARK  105  A    between atoms: _265  and  _266
REMARK  106  A    between atoms: _265  and  _268
REMARK  107  A    between atoms: _268  and  _269
REMARK  108  A    between atoms: _272  and  _274
REMARK  109  A    between atoms: _274  and  _275
REMARK  110  A    between atoms: _274  and  _277
REMARK  111  A    between atoms: _277  and  _278
REMARK  112  A    between atoms: _280  and  _282
REMARK  113  A    between atoms: _282  and  _283
REMARK  114  A    between atoms: _282  and  _285
REMARK  115  A    between atoms: _285  and  _286
REMARK  116  A    between atoms: _288  and  _290
REMARK  117  A    between atoms: _290  and  _291
REMARK  118  A    between atoms: _293  and  _295
REMARK  119  A    between atoms: _295  and  _296
REMARK  120  A    between atoms: _295  and  _298
REMARK  121  A    between atoms: _298  and  _299
REMARK  122  A    between atoms: _302  and  _304
REMARK  123  A    between atoms: _304  and  _305
REMARK  124  A    between atoms: _308  and  _310
REMARK  125  A    between atoms: _310  and  _311
REMARK  126  A    between atoms: _310  and  _313
REMARK  127  A    between atoms: _313  and  _314
REMARK  128  A    between atoms: _319  and  _320
REMARK  129  A    between atoms: _322  and  _324
REMARK  130  A    between atoms: _324  and  _325
REMARK  131  A    between atoms: _324  and  _327
REMARK  132  A    between atoms: _327  and  _328
REMARK  133  A    between atoms: _331  and  _333
REMARK  134  A    between atoms: _333  and  _334
REMARK  135  A    between atoms: _337  and  _339
REMARK  136  A    between atoms: _339  and  _340
REMARK  137  A    between atoms: _339  and  _342
REMARK  138  A    between atoms: _342  and  _343
REMARK  139  A    between atoms: _346  and  _348
REMARK  140  A    between atoms: _348  and  _349
REMARK  141  A    between atoms: _348  and  _351
REMARK  142  A    between atoms: _351  and  _352
REMARK  143  A    between atoms: _352  and  _353
REMARK  144  A    between atoms: _353  and  _354
REMARK  145  A    between atoms: _354  and  _355
REMARK  146  A    between atoms: _359  and  _361
REMARK  147  A    between atoms: _361  and  _362
REMARK  148  A    between atoms: _361  and  _364
REMARK  149  A    between atoms: _364  and  _365
REMARK  150  A    between atoms: _367  and  _369
REMARK  151  A    between atoms: _369  and  _370
REMARK  152  A    between atoms: _372  and  _374
REMARK  153  A    between atoms: _374  and  _375
REMARK  154  A    between atoms: _374  and  _377
REMARK  155  A    between atoms: _377  and  _378
REMARK  156  A    between atoms: _381  and  _383
REMARK  157  A    between atoms: _383  and  _384
REMARK  158  A    between atoms: _383  and  _386
REMARK  159  A    between atoms: _386  and  _387
REMARK  160  A    between atoms: _390  and  _392
REMARK  161  A    between atoms: _392  and  _393
REMARK  162  A    between atoms: _396  and  _398
REMARK  163  A    between atoms: _398  and  _399
REMARK  164  A    between atoms: _401  and  _403
REMARK  165  A    between atoms: _403  and  _404
REMARK  166  A    between atoms: _403  and  _406
REMARK  167  A    between atoms: _406  and  _407
REMARK  168  A    between atoms: _413  and  _415
REMARK  169  A    between atoms: _415  and  _416
REMARK  170  A    between atoms: _415  and  _418
REMARK  171  A    between atoms: _418  and  _419
REMARK  172  A    between atoms: _422  and  _424
REMARK  173  A    between atoms: _424  and  _425
REMARK  174  A    between atoms: _424  and  _427
REMARK  175  A    between atoms: _427  and  _428
REMARK  176  A    between atoms: _433  and  _435
REMARK  177  A    between atoms: _435  and  _436
REMARK  178  A    between atoms: _435  and  _438
REMARK  179  A    between atoms: _438  and  _439
REMARK  180  A    between atoms: _442  and  _444
REMARK  181  A    between atoms: _444  and  _445
REMARK  182  A    between atoms: _444  and  _447
REMARK  183  A    between atoms: _447  and  _448
REMARK  184  A    between atoms: _453  and  _454
REMARK  185  A    between atoms: _456  and  _458
REMARK  186  A    between atoms: _458  and  _459
REMARK  187  A    between atoms: _458  and  _461
REMARK  188  A    between atoms: _461  and  _462
REMARK  189  A    between atoms: _465  and  _467
REMARK  190  A    between atoms: _467  and  _468
REMARK  191  A    between atoms: _467  and  _470
REMARK  192  A    between atoms: _470  and  _471
REMARK  193  A    between atoms: _471  and  _472
REMARK  194  A    between atoms: _475  and  _477
REMARK  195  A    between atoms: _477  and  _478
REMARK  196  A    between atoms: _477  and  _480
REMARK  197  A    between atoms: _480  and  _481
REMARK  198  A    between atoms: _484  and  _486
REMARK  199  A    between atoms: _486  and  _487
REMARK  200  A    between atoms: _489  and  _491
REMARK  201  A    between atoms: _491  and  _492
REMARK  202  A    between atoms: _494  and  _496
REMARK  203  A    between atoms: _496  and  _497
REMARK  204  A    between atoms: _496  and  _499
REMARK  205  A    between atoms: _499  and  _500
REMARK  206  A    between atoms: _500  and  _501
REMARK  207  A    between atoms: _506  and  _508
REMARK  208  A    between atoms: _508  and  _509
REMARK  209  A    between atoms: _512  and  _514
REMARK  210  A    between atoms: _514  and  _515
REMARK  211  A    between atoms: _514  and  _517
REMARK  212  A    between atoms: _517  and  _518
REMARK  213  A    between atoms: _521  and  _523
REMARK  214  A    between atoms: _523  and  _524
REMARK  215  A    between atoms: _523  and  _526
REMARK  216  A    between atoms: _526  and  _527
REMARK  217  A    between atoms: _527  and  _528
REMARK  218  A    between atoms: _533  and  _535
REMARK  219  A    between atoms: _535  and  _536
REMARK  220  A    between atoms: _535  and  _538
REMARK  221  A    between atoms: _538  and  _539
REMARK  222  A    between atoms: _542  and  _544
REMARK  223  A    between atoms: _544  and  _545
REMARK  224  A    between atoms: _544  and  _547
REMARK  225  A    between atoms: _547  and  _548
REMARK  226  A    between atoms: _548  and  _549
REMARK  227  A    between atoms: _549  and  _550
REMARK                            x       y       z     vdW  Elec       q    Type
REMARK                         _______ _______ _______ _____ _____    ______ ____
ROOT
ATOM      1  O   HOH     1     -18.999 -17.009  12.130  0.00  0.00    +0.000 OA
ENDROOT
TORSDOF 0
REMARK  Name = ../refined-set-2016/4r75/4r75_pocket.pdb
REMARK  227 active torsions:
REMARK  status: ('A' for Active; 'I' for Inactive)
REMARK    1  A    between atoms: _1  and  _3
REMARK    2  A    between atoms: _3  and  _4
REMARK    3  A    between atoms: _3  and  _6
REMARK    4  A    between atoms: _8  and  _10
REMARK    5  A    between atoms: _10  and  _11
REMARK    6  A    between atoms: _10  and  _13
REMARK    7  A    between atoms: _13  and  _14
REMARK    8  A    between atoms: _16  and  _18
REMARK    9  A    between atoms: _18  and  _19
REMARK   10  A    between atoms: _22  and  _24
REMARK   11  A    between atoms: _24  and  _25
REMARK   12  A    between atoms: _24  and  _27
REMARK   13  A    between atoms: _27  and  _28
REMARK   14  A    between atoms: _31  and  _33
REMARK   15  A    between atoms: _33  and  _34
REMARK   16  A    between atoms: _33  and  _36
REMARK   17  A    between atoms: _36  and  _37
REMARK   18  A    between atoms: _42  and  _44
REMARK   19  A    between atoms: _44  and  _45
REMARK   20  A    between atoms: _44  and  _47
REMARK   21  A    between atoms: _47  and  _48
REMARK   22  A    between atoms: _48  and  _49
REMARK   23  A    between atoms: _51  and  _53
REMARK   24  A    between atoms: _53  and  _54
REMARK   25  A    between atoms: _53  and  _56
REMARK   26  A    between atoms: _56  and  _57
REMARK   27  A    between atoms: _57  and  _58
REMARK   28  A    between atoms: _58  and  _59
REMARK   29  A    between atoms: _68  and  _70
REMARK   30  A    between atoms: _70  and  _71
REMARK   31  A    between atoms: _70  and  _73
REMARK   32  A    between atoms: _73  and  _74
REMARK   33  A    between atoms: _79  and  _81
REMARK   34  A    between atoms: _81  and  _82
REMARK   35  A    between atoms: _84  and  _86
REMARK   36  A    between atoms: _86  and  _87
REMARK   37  A    between atoms: _86  and  _89
REMARK   38  A    between atoms: _89  and  _90
REMARK   39  A    between atoms: _92  and  _94
REMARK   40  A    between atoms: _94  and  _95
REMARK   41  A    between atoms: _97  and  _99
REMARK   42  A    between atoms: _99  and  _100
REMARK   43  A    between atoms: _99  and  _102
REMARK   44  A    between atoms: _102  and  _103
REMARK   45  A    between atoms: _105  and  _107
REMARK   46  A    between atoms: _107  and  _108
REMARK   47  A    between atoms: _107  and  _110
REMARK   48  A    between atoms: _110  and  _111
REMARK   49  A    between atoms: _114  and  _116
REMARK   50  A    between atoms: _116  and  _117
REMARK   51  A    between atoms: _116  and  _119
REMARK   52  A    between atoms: _119  and  _120
REMARK   53  A    between atoms: _126  and  _128
REMARK   54  A    between atoms: _128  and  _129
REMARK   55  A    between atoms: _128  and  _131
REMARK   56  A    between atoms: _131  and  _132
REMARK   57  A    between atoms: _142  and  _144
REMARK   58  A    between atoms: _144  and  _145
REMARK   59  A    between atoms: _144  and  _147
REMARK   60  A    between atoms: _147  and  _148
REMARK   61  A    between atoms: _153  and  _154
REMARK   62  A    between atoms: _156  and  _158
REMARK   63  A    between atoms: _158  and  _159
REMARK   64  A    between atoms: _161  and  _163
REMARK   65  A    between atoms: _163  and  _164
REMARK   66  A    between atoms: _166  and  _168
REMARK   67  A    between atoms: _168  and  _169
REMARK   68  A    between atoms: _168  and  _171
REMARK   69  A    between atoms: _171  and  _172
REMARK   70  A    between atoms: _175  and  _177
REMARK   71  A    between atoms: _177  and  _178
REMARK   72  A    between atoms: _177  and  _180
REMARK   73  A    between atoms: _180  and  _181
REMARK   74  A    between atoms: _184  and  _186
REMARK   75  A    between atoms: _186  and  _187
REMARK   76  A    between atoms: _186  and  _189
REMARK   77  A    between atoms: _189  and  _190
REMARK   78  A    between atoms: _194  and  _195
REMARK   79  A    between atoms: _200  and  _202
REMARK   80  A    between atoms: _202  and  _203
REMARK   81  A    between atoms: _202  and  _205
REMARK   82  A    between atoms: _205  and  _206
REMARK   83  A    between atoms: _206  and  _207
REMARK   84  A    between atoms: _212  and  _214
REMARK   85  A    between atoms: _214  and  _215
REMARK   86  A    between atoms: _214  and  _217
REMARK   87  A    between atoms: _220  and  _222
REMARK   88  A    between atoms: _222  and  _223
REMARK   89  A    between atoms: _222  and  _225
REMARK   90  A    between atoms: _225  and  _226
REMARK   91  A    between atoms: _231  and  _232
REMARK   92  A    between atoms: _234  and  _236
REMARK   93  A    between atoms: _236  and  _237
REMARK   94  A    between atoms: _236  and  _239
REMARK   95  A    between atoms: _239  and  _240
REMARK   96  A    between atoms: _243  and  _245
REMARK   97  A    between atoms: _245  and  _246
REMARK   98  A    between atoms: _248  and  _250
REMARK   99  A    between atoms: _250  and  _251
REMARK  100  A    between atoms: _250  and  _253
REMARK  101  A    between atoms: _253  and  _254
REMARK  102  A    between atoms: _257  and  _259
REMARK  103  A    between atoms: _259  and  _260
REMARK  104  A    between atoms: _263  and  _265
REMARK  105  A    between atoms: _265  and  _266
REMARK  106  A    between atoms: _265  and  _268
REMARK  107  A    between atoms: _268  and  _269
REMARK  108  A    between atoms: _272  and  _274
REMARK  109  A    between atoms: _274  and  _275
REMARK  110  A    between atoms: _274  and  _277
REMARK  111  A    between atoms: _277  and  _278
REMARK  112  A    between atoms: _280  and  _282
REMARK  113  A    between atoms: _282  and  _283
REMARK  114  A    between atoms: _282  and  _285
REMARK  115  A    between atoms: _285  and  _286
REMARK  116  A    between atoms: _288  and  _290
REMARK  117  A    between atoms: _290  and  _291
REMARK  118  A    between atoms: _293  and  _295
REMARK  119  A    between atoms: _295  and  _296
REMARK  120  A    between atoms: _295  and  _298
REMARK  121  A    between atoms: _298  and  _299
REMARK  122  A    between atoms: _302  and  _304
REMARK  123  A    between atoms: _304  and  _305
REMARK  124  A    between atoms: _308  and  _310
REMARK  125  A    between atoms: _310  and  _311
REMARK  126  A    between atoms: _310  and  _313
REMARK  127  A    between atoms: _313  and  _314
REMARK  128  A    between atoms: _319  and  _320
REMARK  129  A    between atoms: _322  and  _324
REMARK  130  A    between atoms: _324  and  _325
REMARK  131  A    between atoms: _324  and  _327
REMARK  132  A    between atoms: _327  and  _328
REMARK  133  A    between atoms: _331  and  _333
REMARK  134  A    between atoms: _333  and  _334
REMARK  135  A    between atoms: _337  and  _339
REMARK  136  A    between atoms: _339  and  _340
REMARK  137  A    between atoms: _339  and  _342
REMARK  138  A    between atoms: _342  and  _343
REMARK  139  A    between atoms: _346  and  _348
REMARK  140  A    between atoms: _348  and  _349
REMARK  141  A    between atoms: _348  and  _351
REMARK  142  A    between atoms: _351  and  _352
REMARK  143  A    between atoms: _352  and  _353
REMARK  144  A    between atoms: _353  and  _354
REMARK  145  A    between atoms: _354  and  _355
REMARK  146  A    between atoms: _359  and  _361
REMARK  147  A    between atoms: _361  and  _362
REMARK  148  A    between atoms: _361  and  _364
REMARK  149  A    between atoms: _364  and  _365
REMARK  150  A    between atoms: _367  and  _369
REMARK  151  A    between atoms: _369  and  _370
REMARK  152  A    between atoms: _372  and  _374
REMARK  153  A    between atoms: _374  and  _375
REMARK  154  A    between atoms: _374  and  _377
REMARK  155  A    between atoms: _377  and  _378
REMARK  156  A    between atoms: _381  and  _383
REMARK  157  A    between atoms: _383  and  _384
REMARK  158  A    between atoms: _383  and  _386
REMARK  159  A    between atoms: _386  and  _387
REMARK  160  A    between atoms: _390  and  _392
REMARK  161  A    between atoms: _392  and  _393
REMARK  162  A    between atoms: _396  and  _398
REMARK  163  A    between atoms: _398  and  _399
REMARK  164  A    between atoms: _401  and  _403
REMARK  165  A    between atoms: _403  and  _404
REMARK  166  A    between atoms: _403  and  _406
REMARK  167  A    between atoms: _406  and  _407
REMARK  168  A    between atoms: _413  and  _415
REMARK  169  A    between atoms: _415  and  _416
REMARK  170  A    between atoms: _415  and  _418
REMARK  171  A    between atoms: _418  and  _419
REMARK  172  A    between atoms: _422  and  _424
REMARK  173  A    between atoms: _424  and  _425
REMARK  174  A    between atoms: _424  and  _427
REMARK  175  A    between atoms: _427  and  _428
REMARK  176  A    between atoms: _433  and  _435
REMARK  177  A    between atoms: _435  and  _436
REMARK  178  A    between atoms: _435  and  _438
REMARK  179  A    between atoms: _438  and  _439
REMARK  180  A    between atoms: _442  and  _444
REMARK  181  A    between atoms: _444  and  _445
REMARK  182  A    between atoms: _444  and  _447
REMARK  183  A    between atoms: _447  and  _448
REMARK  184  A    between atoms: _453  and  _454
REMARK  185  A    between atoms: _456  and  _458
REMARK  186  A    between atoms: _458  and  _459
REMARK  187  A    between atoms: _458  and  _461
REMARK  188  A    between atoms: _461  and  _462
REMARK  189  A    between atoms: _465  and  _467
REMARK  190  A    between atoms: _467  and  _468
REMARK  191  A    between atoms: _467  and  _470
REMARK  192  A    between atoms: _470  and  _471
REMARK  193  A    between atoms: _471  and  _472
REMARK  194  A    between atoms: _475  and  _477
REMARK  195  A    between atoms: _477  and  _478
REMARK  196  A    between atoms: _477  and  _480
REMARK  197  A    between atoms: _480  and  _481
REMARK  198  A    between atoms: _484  and  _486
REMARK  199  A    between atoms: _486  and  _487
REMARK  200  A    between atoms: _489  and  _491
REMARK  201  A    between atoms: _491  and  _492
REMARK  202  A    between atoms: _494  and  _496
REMARK  203  A    between atoms: _496  and  _497
REMARK  204  A    between atoms: _496  and  _499
REMARK  205  A    between atoms: _499  and  _500
REMARK  206  A    between atoms: _500  and  _501
REMARK  207  A    between atoms: _506  and  _508
REMARK  208  A    between atoms: _508  and  _509
REMARK  209  A    between atoms: _512  and  _514
REMARK  210  A    between atoms: _514  and  _515
REMARK  211  A    between atoms: _514  and  _517
REMARK  212  A    between atoms: _517  and  _518
REMARK  213  A    between atoms: _521  and  _523
REMARK  214  A    between atoms: _523  and  _524
REMARK  215  A    between atoms: _523  and  _526
REMARK  216  A    between atoms: _526  and  _527
REMARK  217  A    between atoms: _527  and  _528
REMARK  218  A    between atoms: _533  and  _535
REMARK  219  A    between atoms: _535  and  _536
REMARK  220  A    between atoms: _535  and  _538
REMARK  221  A    between atoms: _538  and  _539
REMARK  222  A    between atoms: _542  and  _544
REMARK  223  A    between atoms: _544  and  _545
REMARK  224  A    between atoms: _544  and  _547
REMARK  225  A    between atoms: _547  and  _548
REMARK  226  A    between atoms: _548  and  _549
REMARK  227  A    between atoms: _549  and  _550
REMARK                            x       y       z     vdW  Elec       q    Type
REMARK                         _______ _______ _______ _____ _____    ______ ____
ROOT
ATOM      1  O   HOH     1     -10.713  -8.495   0.121  0.00  0.00    +0.000 OA
ENDROOT
TORSDOF 0
REMARK  Name = ../refined-set-2016/4r75/4r75_pocket.pdb
REMARK  227 active torsions:
REMARK  status: ('A' for Active; 'I' for Inactive)
REMARK    1  A    between atoms: _1  and  _3
REMARK    2  A    between atoms: _3  and  _4
REMARK    3  A    between atoms: _3  and  _6
REMARK    4  A    between atoms: _8  and  _10
REMARK    5  A    between atoms: _10  and  _11
REMARK    6  A    between atoms: _10  and  _13
REMARK    7  A    between atoms: _13  and  _14
REMARK    8  A    between atoms: _16  and  _18
REMARK    9  A    between atoms: _18  and  _19
REMARK   10  A    between atoms: _22  and  _24
REMARK   11  A    between atoms: _24  and  _25
REMARK   12  A    between atoms: _24  and  _27
REMARK   13  A    between atoms: _27  and  _28
REMARK   14  A    between atoms: _31  and  _33
REMARK   15  A    between atoms: _33  and  _34
REMARK   16  A    between atoms: _33  and  _36
REMARK   17  A    between atoms: _36  and  _37
REMARK   18  A    between atoms: _42  and  _44
REMARK   19  A    between atoms: _44  and  _45
REMARK   20  A    between atoms: _44  and  _47
REMARK   21  A    between atoms: _47  and  _48
REMARK   22  A    between atoms: _48  and  _49
REMARK   23  A    between atoms: _51  and  _53
REMARK   24  A    between atoms: _53  and  _54
REMARK   25  A    between atoms: _53  and  _56
REMARK   26  A    between atoms: _56  and  _57
REMARK   27  A    between atoms: _57  and  _58
REMARK   28  A    between atoms: _58  and  _59
REMARK   29  A    between atoms: _68  and  _70
REMARK   30  A    between atoms: _70  and  _71
REMARK   31  A    between atoms: _70  and  _73
REMARK   32  A    between atoms: _73  and  _74
REMARK   33  A    between atoms: _79  and  _81
REMARK   34  A    between atoms: _81  and  _82
REMARK   35  A    between atoms: _84  and  _86
REMARK   36  A    between atoms: _86  and  _87
REMARK   37  A    between atoms: _86  and  _89
REMARK   38  A    between atoms: _89  and  _90
REMARK   39  A    between atoms: _92  and  _94
REMARK   40  A    between atoms: _94  and  _95
REMARK   41  A    between atoms: _97  and  _99
REMARK   42  A    between atoms: _99  and  _100
REMARK   43  A    between atoms: _99  and  _102
REMARK   44  A    between atoms: _102  and  _103
REMARK   45  A    between atoms: _105  and  _107
REMARK   46  A    between atoms: _107  and  _108
REMARK   47  A    between atoms: _107  and  _110
REMARK   48  A    between atoms: _110  and  _111
REMARK   49  A    between atoms: _114  and  _116
REMARK   50  A    between atoms: _116  and  _117
REMARK   51  A    between atoms: _116  and  _119
REMARK   52  A    between atoms: _119  and  _120
REMARK   53  A    between atoms: _126  and  _128
REMARK   54  A    between atoms: _128  and  _129
REMARK   55  A    between atoms: _128  and  _131
REMARK   56  A    between atoms: _131  and  _132
REMARK   57  A    between atoms: _142  and  _144
REMARK   58  A    between atoms: _144  and  _145
REMARK   59  A    between atoms: _144  and  _147
REMARK   60  A    between atoms: _147  and  _148
REMARK   61  A    between atoms: _153  and  _154
REMARK   62  A    between atoms: _156  and  _158
REMARK   63  A    between atoms: _158  and  _159
REMARK   64  A    between atoms: _161  and  _163
REMARK   65  A    between atoms: _163  and  _164
REMARK   66  A    between atoms: _166  and  _168
REMARK   67  A    between atoms: _168  and  _169
REMARK   68  A    between atoms: _168  and  _171
REMARK   69  A    between atoms: _171  and  _172
REMARK   70  A    between atoms: _175  and  _177
REMARK   71  A    between atoms: _177  and  _178
REMARK   72  A    between atoms: _177  and  _180
REMARK   73  A    between atoms: _180  and  _181
REMARK   74  A    between atoms: _184  and  _186
REMARK   75  A    between atoms: _186  and  _187
REMARK   76  A    between atoms: _186  and  _189
REMARK   77  A    between atoms: _189  and  _190
REMARK   78  A    between atoms: _194  and  _195
REMARK   79  A    between atoms: _200  and  _202
REMARK   80  A    between atoms: _202  and  _203
REMARK   81  A    between atoms: _202  and  _205
REMARK   82  A    between atoms: _205  and  _206
REMARK   83  A    between atoms: _206  and  _207
REMARK   84  A    between atoms: _212  and  _214
REMARK   85  A    between atoms: _214  and  _215
REMARK   86  A    between atoms: _214  and  _217
REMARK   87  A    between atoms: _220  and  _222
REMARK   88  A    between atoms: _222  and  _223
REMARK   89  A    between atoms: _222  and  _225
REMARK   90  A    between atoms: _225  and  _226
REMARK   91  A    between atoms: _231  and  _232
REMARK   92  A    between atoms: _234  and  _236
REMARK   93  A    between atoms: _236  and  _237
REMARK   94  A    between atoms: _236  and  _239
REMARK   95  A    between atoms: _239  and  _240
REMARK   96  A    between atoms: _243  and  _245
REMARK   97  A    between atoms: _245  and  _246
REMARK   98  A    between atoms: _248  and  _250
REMARK   99  A    between atoms: _250  and  _251
REMARK  100  A    between atoms: _250  and  _253
REMARK  101  A    between atoms: _253  and  _254
REMARK  102  A    between atoms: _257  and  _259
REMARK  103  A    between atoms: _259  and  _260
REMARK  104  A    between atoms: _263  and  _265
REMARK  105  A    between atoms: _265  and  _266
REMARK  106  A    between atoms: _265  and  _268
REMARK  107  A    between atoms: _268  and  _269
REMARK  108  A    between atoms: _272  and  _274
REMARK  109  A    between atoms: _274  and  _275
REMARK  110  A    between atoms: _274  and  _277
REMARK  111  A    between atoms: _277  and  _278
REMARK  112  A    between atoms: _280  and  _282
REMARK  113  A    between atoms: _282  and  _283
REMARK  114  A    between atoms: _282  and  _285
REMARK  115  A    between atoms: _285  and  _286
REMARK  116  A    between atoms: _288  and  _290
REMARK  117  A    between atoms: _290  and  _291
REMARK  118  A    between atoms: _293  and  _295
REMARK  119  A    between atoms: _295  and  _296
REMARK  120  A    between atoms: _295  and  _298
REMARK  121  A    between atoms: _298  and  _299
REMARK  122  A    between atoms: _302  and  _304
REMARK  123  A    between atoms: _304  and  _305
REMARK  124  A    between atoms: _308  and  _310
REMARK  125  A    between atoms: _310  and  _311
REMARK  126  A    between atoms: _310  and  _313
REMARK  127  A    between atoms: _313  and  _314
REMARK  128  A    between atoms: _319  and  _320
REMARK  129  A    between atoms: _322  and  _324
REMARK  130  A    between atoms: _324  and  _325
REMARK  131  A    between atoms: _324  and  _327
REMARK  132  A    between atoms: _327  and  _328
REMARK  133  A    between atoms: _331  and  _333
REMARK  134  A    between atoms: _333  and  _334
REMARK  135  A    between atoms: _337  and  _339
REMARK  136  A    between atoms: _339  and  _340
REMARK  137  A    between atoms: _339  and  _342
REMARK  138  A    between atoms: _342  and  _343
REMARK  139  A    between atoms: _346  and  _348
REMARK  140  A    between atoms: _348  and  _349
REMARK  141  A    between atoms: _348  and  _351
REMARK  142  A    between atoms: _351  and  _352
REMARK  143  A    between atoms: _352  and  _353
REMARK  144  A    between atoms: _353  and  _354
REMARK  145  A    between atoms: _354  and  _355
REMARK  146  A    between atoms: _359  and  _361
REMARK  147  A    between atoms: _361  and  _362
REMARK  148  A    between atoms: _361  and  _364
REMARK  149  A    between atoms: _364  and  _365
REMARK  150  A    between atoms: _367  and  _369
REMARK  151  A    between atoms: _369  and  _370
REMARK  152  A    between atoms: _372  and  _374
REMARK  153  A    between atoms: _374  and  _375
REMARK  154  A    between atoms: _374  and  _377
REMARK  155  A    between atoms: _377  and  _378
REMARK  156  A    between atoms: _381  and  _383
REMARK  157  A    between atoms: _383  and  _384
REMARK  158  A    between atoms: _383  and  _386
REMARK  159  A    between atoms: _386  and  _387
REMARK  160  A    between atoms: _390  and  _392
REMARK  161  A    between atoms: _392  and  _393
REMARK  162  A    between atoms: _396  and  _398
REMARK  163  A    between atoms: _398  and  _399
REMARK  164  A    between atoms: _401  and  _403
REMARK  165  A    between atoms: _403  and  _404
REMARK  166  A    between atoms: _403  and  _406
REMARK  167  A    between atoms: _406  and  _407
REMARK  168  A    between atoms: _413  and  _415
REMARK  169  A    between atoms: _415  and  _416
REMARK  170  A    between atoms: _415  and  _418
REMARK  171  A    between atoms: _418  and  _419
REMARK  172  A    between atoms: _422  and  _424
REMARK  173  A    between atoms: _424  and  _425
REMARK  174  A    between atoms: _424  and  _427
REMARK  175  A    between atoms: _427  and  _428
REMARK  176  A    between atoms: _433  and  _435
REMARK  177  A    between atoms: _435  and  _436
REMARK  178  A    between atoms: _435  and  _438
REMARK  179  A    between atoms: _438  and  _439
REMARK  180  A    between atoms: _442  and  _444
REMARK  181  A    between atoms: _444  and  _445
REMARK  182  A    between atoms: _444  and  _447
REMARK  183  A    between atoms: _447  and  _448
REMARK  184  A    between atoms: _453  and  _454
REMARK  185  A    between atoms: _456  and  _458
REMARK  186  A    between atoms: _458  and  _459
REMARK  187  A    between atoms: _458  and  _461
REMARK  188  A    between atoms: _461  and  _462
REMARK  189  A    between atoms: _465  and  _467
REMARK  190  A    between atoms: _467  and  _468
REMARK  191  A    between atoms: _467  and  _470
REMARK  192  A    between atoms: _470  and  _471
REMARK  193  A    between atoms: _471  and  _472
REMARK  194  A    between atoms: _475  and  _477
REMARK  195  A    between atoms: _477  and  _478
REMARK  196  A    between atoms: _477  and  _480
REMARK  197  A    between atoms: _480  and  _481
REMARK  198  A    between atoms: _484  and  _486
REMARK  199  A    between atoms: _486  and  _487
REMARK  200  A    between atoms: _489  and  _491
REMARK  201  A    between atoms: _491  and  _492
REMARK  202  A    between atoms: _494  and  _496
REMARK  203  A    between atoms: _496  and  _497
REMARK  204  A    between atoms: _496  and  _499
REMARK  205  A    between atoms: _499  and  _500
REMARK  206  A    between atoms: _500  and  _501
REMARK  207  A    between atoms: _506  and  _508
REMARK  208  A    between atoms: _508  and  _509
REMARK  209  A    between atoms: _512  and  _514
REMARK  210  A    between atoms: _514  and  _515
REMARK  211  A    between atoms: _514  and  _517
REMARK  212  A    between atoms: _517  and  _518
REMARK  213  A    between atoms: _521  and  _523
REMARK  214  A    between atoms: _523  and  _524
REMARK  215  A    between atoms: _523  and  _526
REMARK  216  A    between atoms: _526  and  _527
REMARK  217  A    between atoms: _527  and  _528
REMARK  218  A    between atoms: _533  and  _535
REMARK  219  A    between atoms: _535  and  _536
REMARK  220  A    between atoms: _535  and  _538
REMARK  221  A    between atoms: _538  and  _539
REMARK  222  A    between atoms: _542  and  _544
REMARK  223  A    between atoms: _544  and  _545
REMARK  224  A    between atoms: _544  and  _547
REMARK  225  A    between atoms: _547  and  _548
REMARK  226  A    between atoms: _548  and  _549
REMARK  227  A    between atoms: _549  and  _550
REMARK                            x       y       z     vdW  Elec       q    Type
REMARK                         _______ _______ _______ _____ _____    ______ ____
ROOT
ATOM      1  O   HOH     1     -20.707 -13.856  11.457  0.00  0.00    +0.000 OA
ENDROOT
TORSDOF 0
REMARK  Name = ../refined-set-2016/4r75/4r75_pocket.pdb
REMARK  227 active torsions:
REMARK  status: ('A' for Active; 'I' for Inactive)
REMARK    1  A    between atoms: _1  and  _3
REMARK    2  A    between atoms: _3  and  _4
REMARK    3  A    between atoms: _3  and  _6
REMARK    4  A    between atoms: _8  and  _10
REMARK    5  A    between atoms: _10  and  _11
REMARK    6  A    between atoms: _10  and  _13
REMARK    7  A    between atoms: _13  and  _14
REMARK    8  A    between atoms: _16  and  _18
REMARK    9  A    between atoms: _18  and  _19
REMARK   10  A    between atoms: _22  and  _24
REMARK   11  A    between atoms: _24  and  _25
REMARK   12  A    between atoms: _24  and  _27
REMARK   13  A    between atoms: _27  and  _28
REMARK   14  A    between atoms: _31  and  _33
REMARK   15  A    between atoms: _33  and  _34
REMARK   16  A    between atoms: _33  and  _36
REMARK   17  A    between atoms: _36  and  _37
REMARK   18  A    between atoms: _42  and  _44
REMARK   19  A    between atoms: _44  and  _45
REMARK   20  A    between atoms: _44  and  _47
REMARK   21  A    between atoms: _47  and  _48
REMARK   22  A    between atoms: _48  and  _49
REMARK   23  A    between atoms: _51  and  _53
REMARK   24  A    between atoms: _53  and  _54
REMARK   25  A    between atoms: _53  and  _56
REMARK   26  A    between atoms: _56  and  _57
REMARK   27  A    between atoms: _57  and  _58
REMARK   28  A    between atoms: _58  and  _59
REMARK   29  A    between atoms: _68  and  _70
REMARK   30  A    between atoms: _70  and  _71
REMARK   31  A    between atoms: _70  and  _73
REMARK   32  A    between atoms: _73  and  _74
REMARK   33  A    between atoms: _79  and  _81
REMARK   34  A    between atoms: _81  and  _82
REMARK   35  A    between atoms: _84  and  _86
REMARK   36  A    between atoms: _86  and  _87
REMARK   37  A    between atoms: _86  and  _89
REMARK   38  A    between atoms: _89  and  _90
REMARK   39  A    between atoms: _92  and  _94
REMARK   40  A    between atoms: _94  and  _95
REMARK   41  A    between atoms: _97  and  _99
REMARK   42  A    between atoms: _99  and  _100
REMARK   43  A    between atoms: _99  and  _102
REMARK   44  A    between atoms: _102  and  _103
REMARK   45  A    between atoms: _105  and  _107
REMARK   46  A    between atoms: _107  and  _108
REMARK   47  A    between atoms: _107  and  _110
REMARK   48  A    between atoms: _110  and  _111
REMARK   49  A    between atoms: _114  and  _116
REMARK   50  A    between atoms: _116  and  _117
REMARK   51  A    between atoms: _116  and  _119
REMARK   52  A    between atoms: _119  and  _120
REMARK   53  A    between atoms: _126  and  _128
REMARK   54  A    between atoms: _128  and  _129
REMARK   55  A    between atoms: _128  and  _131
REMARK   56  A    between atoms: _131  and  _132
REMARK   57  A    between atoms: _142  and  _144
REMARK   58  A    between atoms: _144  and  _145
REMARK   59  A    between atoms: _144  and  _147
REMARK   60  A    between atoms: _147  and  _148
REMARK   61  A    between atoms: _153  and  _154
REMARK   62  A    between atoms: _156  and  _158
REMARK   63  A    between atoms: _158  and  _159
REMARK   64  A    between atoms: _161  and  _163
REMARK   65  A    between atoms: _163  and  _164
REMARK   66  A    between atoms: _166  and  _168
REMARK   67  A    between atoms: _168  and  _169
REMARK   68  A    between atoms: _168  and  _171
REMARK   69  A    between atoms: _171  and  _172
REMARK   70  A    between atoms: _175  and  _177
REMARK   71  A    between atoms: _177  and  _178
REMARK   72  A    between atoms: _177  and  _180
REMARK   73  A    between atoms: _180  and  _181
REMARK   74  A    between atoms: _184  and  _186
REMARK   75  A    between atoms: _186  and  _187
REMARK   76  A    between atoms: _186  and  _189
REMARK   77  A    between atoms: _189  and  _190
REMARK   78  A    between atoms: _194  and  _195
REMARK   79  A    between atoms: _200  and  _202
REMARK   80  A    between atoms: _202  and  _203
REMARK   81  A    between atoms: _202  and  _205
REMARK   82  A    between atoms: _205  and  _206
REMARK   83  A    between atoms: _206  and  _207
REMARK   84  A    between atoms: _212  and  _214
REMARK   85  A    between atoms: _214  and  _215
REMARK   86  A    between atoms: _214  and  _217
REMARK   87  A    between atoms: _220  and  _222
REMARK   88  A    between atoms: _222  and  _223
REMARK   89  A    between atoms: _222  and  _225
REMARK   90  A    between atoms: _225  and  _226
REMARK   91  A    between atoms: _231  and  _232
REMARK   92  A    between atoms: _234  and  _236
REMARK   93  A    between atoms: _236  and  _237
REMARK   94  A    between atoms: _236  and  _239
REMARK   95  A    between atoms: _239  and  _240
REMARK   96  A    between atoms: _243  and  _245
REMARK   97  A    between atoms: _245  and  _246
REMARK   98  A    between atoms: _248  and  _250
REMARK   99  A    between atoms: _250  and  _251
REMARK  100  A    between atoms: _250  and  _253
REMARK  101  A    between atoms: _253  and  _254
REMARK  102  A    between atoms: _257  and  _259
REMARK  103  A    between atoms: _259  and  _260
REMARK  104  A    between atoms: _263  and  _265
REMARK  105  A    between atoms: _265  and  _266
REMARK  106  A    between atoms: _265  and  _268
REMARK  107  A    between atoms: _268  and  _269
REMARK  108  A    between atoms: _272  and  _274
REMARK  109  A    between atoms: _274  and  _275
REMARK  110  A    between atoms: _274  and  _277
REMARK  111  A    between atoms: _277  and  _278
REMARK  112  A    between atoms: _280  and  _282
REMARK  113  A    between atoms: _282  and  _283
REMARK  114  A    between atoms: _282  and  _285
REMARK  115  A    between atoms: _285  and  _286
REMARK  116  A    between atoms: _288  and  _290
REMARK  117  A    between atoms: _290  and  _291
REMARK  118  A    between atoms: _293  and  _295
REMARK  119  A    between atoms: _295  and  _296
REMARK  120  A    between atoms: _295  and  _298
REMARK  121  A    between atoms: _298  and  _299
REMARK  122  A    between atoms: _302  and  _304
REMARK  123  A    between atoms: _304  and  _305
REMARK  124  A    between atoms: _308  and  _310
REMARK  125  A    between atoms: _310  and  _311
REMARK  126  A    between atoms: _310  and  _313
REMARK  127  A    between atoms: _313  and  _314
REMARK  128  A    between atoms: _319  and  _320
REMARK  129  A    between atoms: _322  and  _324
REMARK  130  A    between atoms: _324  and  _325
REMARK  131  A    between atoms: _324  and  _327
REMARK  132  A    between atoms: _327  and  _328
REMARK  133  A    between atoms: _331  and  _333
REMARK  134  A    between atoms: _333  and  _334
REMARK  135  A    between atoms: _337  and  _339
REMARK  136  A    between atoms: _339  and  _340
REMARK  137  A    between atoms: _339  and  _342
REMARK  138  A    between atoms: _342  and  _343
REMARK  139  A    between atoms: _346  and  _348
REMARK  140  A    between atoms: _348  and  _349
REMARK  141  A    between atoms: _348  and  _351
REMARK  142  A    between atoms: _351  and  _352
REMARK  143  A    between atoms: _352  and  _353
REMARK  144  A    between atoms: _353  and  _354
REMARK  145  A    between atoms: _354  and  _355
REMARK  146  A    between atoms: _359  and  _361
REMARK  147  A    between atoms: _361  and  _362
REMARK  148  A    between atoms: _361  and  _364
REMARK  149  A    between atoms: _364  and  _365
REMARK  150  A    between atoms: _367  and  _369
REMARK  151  A    between atoms: _369  and  _370
REMARK  152  A    between atoms: _372  and  _374
REMARK  153  A    between atoms: _374  and  _375
REMARK  154  A    between atoms: _374  and  _377
REMARK  155  A    between atoms: _377  and  _378
REMARK  156  A    between atoms: _381  and  _383
REMARK  157  A    between atoms: _383  and  _384
REMARK  158  A    between atoms: _383  and  _386
REMARK  159  A    between atoms: _386  and  _387
REMARK  160  A    between atoms: _390  and  _392
REMARK  161  A    between atoms: _392  and  _393
REMARK  162  A    between atoms: _396  and  _398
REMARK  163  A    between atoms: _398  and  _399
REMARK  164  A    between atoms: _401  and  _403
REMARK  165  A    between atoms: _403  and  _404
REMARK  166  A    between atoms: _403  and  _406
REMARK  167  A    between atoms: _406  and  _407
REMARK  168  A    between atoms: _413  and  _415
REMARK  169  A    between atoms: _415  and  _416
REMARK  170  A    between atoms: _415  and  _418
REMARK  171  A    between atoms: _418  and  _419
REMARK  172  A    between atoms: _422  and  _424
REMARK  173  A    between atoms: _424  and  _425
REMARK  174  A    between atoms: _424  and  _427
REMARK  175  A    between atoms: _427  and  _428
REMARK  176  A    between atoms: _433  and  _435
REMARK  177  A    between atoms: _435  and  _436
REMARK  178  A    between atoms: _435  and  _438
REMARK  179  A    between atoms: _438  and  _439
REMARK  180  A    between atoms: _442  and  _444
REMARK  181  A    between atoms: _444  and  _445
REMARK  182  A    between atoms: _444  and  _447
REMARK  183  A    between atoms: _447  and  _448
REMARK  184  A    between atoms: _453  and  _454
REMARK  185  A    between atoms: _456  and  _458
REMARK  186  A    between atoms: _458  and  _459
REMARK  187  A    between atoms: _458  and  _461
REMARK  188  A    between atoms: _461  and  _462
REMARK  189  A    between atoms: _465  and  _467
REMARK  190  A    between atoms: _467  and  _468
REMARK  191  A    between atoms: _467  and  _470
REMARK  192  A    between atoms: _470  and  _471
REMARK  193  A    between atoms: _471  and  _472
REMARK  194  A    between atoms: _475  and  _477
REMARK  195  A    between atoms: _477  and  _478
REMARK  196  A    between atoms: _477  and  _480
REMARK  197  A    between atoms: _480  and  _481
REMARK  198  A    between atoms: _484  and  _486
REMARK  199  A    between atoms: _486  and  _487
REMARK  200  A    between atoms: _489  and  _491
REMARK  201  A    between atoms: _491  and  _492
REMARK  202  A    between atoms: _494  and  _496
REMARK  203  A    between atoms: _496  and  _497
REMARK  204  A    between atoms: _496  and  _499
REMARK  205  A    between atoms: _499  and  _500
REMARK  206  A    between atoms: _500  and  _501
REMARK  207  A    between atoms: _506  and  _508
REMARK  208  A    between atoms: _508  and  _509
REMARK  209  A    between atoms: _512  and  _514
REMARK  210  A    between atoms: _514  and  _515
REMARK  211  A    between atoms: _514  and  _517
REMARK  212  A    between atoms: _517  and  _518
REMARK  213  A    between atoms: _521  and  _523
REMARK  214  A    between atoms: _523  and  _524
REMARK  215  A    between atoms: _523  and  _526
REMARK  216  A    between atoms: _526  and  _527
REMARK  217  A    between atoms: _527  and  _528
REMARK  218  A    between atoms: _533  and  _535
REMARK  219  A    between atoms: _535  and  _536
REMARK  220  A    between atoms: _535  and  _538
REMARK  221  A    between atoms: _538  and  _539
REMARK  222  A    between atoms: _542  and  _544
REMARK  223  A    between atoms: _544  and  _545
REMARK  224  A    between atoms: _544  and  _547
REMARK  225  A    between atoms: _547  and  _548
REMARK  226  A    between atoms: _548  and  _549
REMARK  227  A    between atoms: _549  and  _550
REMARK                            x       y       z     vdW  Elec       q    Type
REMARK                         _______ _______ _______ _____ _____    ______ ____
ROOT
ATOM      1  O   HOH     1     -17.981 -14.618  12.436  0.00  0.00    +0.000 OA
ENDROOT
TORSDOF 0
REMARK  Name = ../refined-set-2016/4r75/4r75_pocket.pdb
REMARK  227 active torsions:
REMARK  status: ('A' for Active; 'I' for Inactive)
REMARK    1  A    between atoms: _1  and  _3
REMARK    2  A    between atoms: _3  and  _4
REMARK    3  A    between atoms: _3  and  _6
REMARK    4  A    between atoms: _8  and  _10
REMARK    5  A    between atoms: _10  and  _11
REMARK    6  A    between atoms: _10  and  _13
REMARK    7  A    between atoms: _13  and  _14
REMARK    8  A    between atoms: _16  and  _18
REMARK    9  A    between atoms: _18  and  _19
REMARK   10  A    between atoms: _22  and  _24
REMARK   11  A    between atoms: _24  and  _25
REMARK   12  A    between atoms: _24  and  _27
REMARK   13  A    between atoms: _27  and  _28
REMARK   14  A    between atoms: _31  and  _33
REMARK   15  A    between atoms: _33  and  _34
REMARK   16  A    between atoms: _33  and  _36
REMARK   17  A    between atoms: _36  and  _37
REMARK   18  A    between atoms: _42  and  _44
REMARK   19  A    between atoms: _44  and  _45
REMARK   20  A    between atoms: _44  and  _47
REMARK   21  A    between atoms: _47  and  _48
REMARK   22  A    between atoms: _48  and  _49
REMARK   23  A    between atoms: _51  and  _53
REMARK   24  A    between atoms: _53  and  _54
REMARK   25  A    between atoms: _53  and  _56
REMARK   26  A    between atoms: _56  and  _57
REMARK   27  A    between atoms: _57  and  _58
REMARK   28  A    between atoms: _58  and  _59
REMARK   29  A    between atoms: _68  and  _70
REMARK   30  A    between atoms: _70  and  _71
REMARK   31  A    between atoms: _70  and  _73
REMARK   32  A    between atoms: _73  and  _74
REMARK   33  A    between atoms: _79  and  _81
REMARK   34  A    between atoms: _81  and  _82
REMARK   35  A    between atoms: _84  and  _86
REMARK   36  A    between atoms: _86  and  _87
REMARK   37  A    between atoms: _86  and  _89
REMARK   38  A    between atoms: _89  and  _90
REMARK   39  A    between atoms: _92  and  _94
REMARK   40  A    between atoms: _94  and  _95
REMARK   41  A    between atoms: _97  and  _99
REMARK   42  A    between atoms: _99  and  _100
REMARK   43  A    between atoms: _99  and  _102
REMARK   44  A    between atoms: _102  and  _103
REMARK   45  A    between atoms: _105  and  _107
REMARK   46  A    between atoms: _107  and  _108
REMARK   47  A    between atoms: _107  and  _110
REMARK   48  A    between atoms: _110  and  _111
REMARK   49  A    between atoms: _114  and  _116
REMARK   50  A    between atoms: _116  and  _117
REMARK   51  A    between atoms: _116  and  _119
REMARK   52  A    between atoms: _119  and  _120
REMARK   53  A    between atoms: _126  and  _128
REMARK   54  A    between atoms: _128  and  _129
REMARK   55  A    between atoms: _128  and  _131
REMARK   56  A    between atoms: _131  and  _132
REMARK   57  A    between atoms: _142  and  _144
REMARK   58  A    between atoms: _144  and  _145
REMARK   59  A    between atoms: _144  and  _147
REMARK   60  A    between atoms: _147  and  _148
REMARK   61  A    between atoms: _153  and  _154
REMARK   62  A    between atoms: _156  and  _158
REMARK   63  A    between atoms: _158  and  _159
REMARK   64  A    between atoms: _161  and  _163
REMARK   65  A    between atoms: _163  and  _164
REMARK   66  A    between atoms: _166  and  _168
REMARK   67  A    between atoms: _168  and  _169
REMARK   68  A    between atoms: _168  and  _171
REMARK   69  A    between atoms: _171  and  _172
REMARK   70  A    between atoms: _175  and  _177
REMARK   71  A    between atoms: _177  and  _178
REMARK   72  A    between atoms: _177  and  _180
REMARK   73  A    between atoms: _180  and  _181
REMARK   74  A    between atoms: _184  and  _186
REMARK   75  A    between atoms: _186  and  _187
REMARK   76  A    between atoms: _186  and  _189
REMARK   77  A    between atoms: _189  and  _190
REMARK   78  A    between atoms: _194  and  _195
REMARK   79  A    between atoms: _200  and  _202
REMARK   80  A    between atoms: _202  and  _203
REMARK   81  A    between atoms: _202  and  _205
REMARK   82  A    between atoms: _205  and  _206
REMARK   83  A    between atoms: _206  and  _207
REMARK   84  A    between atoms: _212  and  _214
REMARK   85  A    between atoms: _214  and  _215
REMARK   86  A    between atoms: _214  and  _217
REMARK   87  A    between atoms: _220  and  _222
REMARK   88  A    between atoms: _222  and  _223
REMARK   89  A    between atoms: _222  and  _225
REMARK   90  A    between atoms: _225  and  _226
REMARK   91  A    between atoms: _231  and  _232
REMARK   92  A    between atoms: _234  and  _236
REMARK   93  A    between atoms: _236  and  _237
REMARK   94  A    between atoms: _236  and  _239
REMARK   95  A    between atoms: _239  and  _240
REMARK   96  A    between atoms: _243  and  _245
REMARK   97  A    between atoms: _245  and  _246
REMARK   98  A    between atoms: _248  and  _250
REMARK   99  A    between atoms: _250  and  _251
REMARK  100  A    between atoms: _250  and  _253
REMARK  101  A    between atoms: _253  and  _254
REMARK  102  A    between atoms: _257  and  _259
REMARK  103  A    between atoms: _259  and  _260
REMARK  104  A    between atoms: _263  and  _265
REMARK  105  A    between atoms: _265  and  _266
REMARK  106  A    between atoms: _265  and  _268
REMARK  107  A    between atoms: _268  and  _269
REMARK  108  A    between atoms: _272  and  _274
REMARK  109  A    between atoms: _274  and  _275
REMARK  110  A    between atoms: _274  and  _277
REMARK  111  A    between atoms: _277  and  _278
REMARK  112  A    between atoms: _280  and  _282
REMARK  113  A    between atoms: _282  and  _283
REMARK  114  A    between atoms: _282  and  _285
REMARK  115  A    between atoms: _285  and  _286
REMARK  116  A    between atoms: _288  and  _290
REMARK  117  A    between atoms: _290  and  _291
REMARK  118  A    between atoms: _293  and  _295
REMARK  119  A    between atoms: _295  and  _296
REMARK  120  A    between atoms: _295  and  _298
REMARK  121  A    between atoms: _298  and  _299
REMARK  122  A    between atoms: _302  and  _304
REMARK  123  A    between atoms: _304  and  _305
REMARK  124  A    between atoms: _308  and  _310
REMARK  125  A    between atoms: _310  and  _311
REMARK  126  A    between atoms: _310  and  _313
REMARK  127  A    between atoms: _313  and  _314
REMARK  128  A    between atoms: _319  and  _320
REMARK  129  A    between atoms: _322  and  _324
REMARK  130  A    between atoms: _324  and  _325
REMARK  131  A    between atoms: _324  and  _327
REMARK  132  A    between atoms: _327  and  _328
REMARK  133  A    between atoms: _331  and  _333
REMARK  134  A    between atoms: _333  and  _334
REMARK  135  A    between atoms: _337  and  _339
REMARK  136  A    between atoms: _339  and  _340
REMARK  137  A    between atoms: _339  and  _342
REMARK  138  A    between atoms: _342  and  _343
REMARK  139  A    between atoms: _346  and  _348
REMARK  140  A    between atoms: _348  and  _349
REMARK  141  A    between atoms: _348  and  _351
REMARK  142  A    between atoms: _351  and  _352
REMARK  143  A    between atoms: _352  and  _353
REMARK  144  A    between atoms: _353  and  _354
REMARK  145  A    between atoms: _354  and  _355
REMARK  146  A    between atoms: _359  and  _361
REMARK  147  A    between atoms: _361  and  _362
REMARK  148  A    between atoms: _361  and  _364
REMARK  149  A    between atoms: _364  and  _365
REMARK  150  A    between atoms: _367  and  _369
REMARK  151  A    between atoms: _369  and  _370
REMARK  152  A    between atoms: _372  and  _374
REMARK  153  A    between atoms: _374  and  _375
REMARK  154  A    between atoms: _374  and  _377
REMARK  155  A    between atoms: _377  and  _378
REMARK  156  A    between atoms: _381  and  _383
REMARK  157  A    between atoms: _383  and  _384
REMARK  158  A    between atoms: _383  and  _386
REMARK  159  A    between atoms: _386  and  _387
REMARK  160  A    between atoms: _390  and  _392
REMARK  161  A    between atoms: _392  and  _393
REMARK  162  A    between atoms: _396  and  _398
REMARK  163  A    between atoms: _398  and  _399
REMARK  164  A    between atoms: _401  and  _403
REMARK  165  A    between atoms: _403  and  _404
REMARK  166  A    between atoms: _403  and  _406
REMARK  167  A    between atoms: _406  and  _407
REMARK  168  A    between atoms: _413  and  _415
REMARK  169  A    between atoms: _415  and  _416
REMARK  170  A    between atoms: _415  and  _418
REMARK  171  A    between atoms: _418  and  _419
REMARK  172  A    between atoms: _422  and  _424
REMARK  173  A    between atoms: _424  and  _425
REMARK  174  A    between atoms: _424  and  _427
REMARK  175  A    between atoms: _427  and  _428
REMARK  176  A    between atoms: _433  and  _435
REMARK  177  A    between atoms: _435  and  _436
REMARK  178  A    between atoms: _435  and  _438
REMARK  179  A    between atoms: _438  and  _439
REMARK  180  A    between atoms: _442  and  _444
REMARK  181  A    between atoms: _444  and  _445
REMARK  182  A    between atoms: _444  and  _447
REMARK  183  A    between atoms: _447  and  _448
REMARK  184  A    between atoms: _453  and  _454
REMARK  185  A    between atoms: _456  and  _458
REMARK  186  A    between atoms: _458  and  _459
REMARK  187  A    between atoms: _458  and  _461
REMARK  188  A    between atoms: _461  and  _462
REMARK  189  A    between atoms: _465  and  _467
REMARK  190  A    between atoms: _467  and  _468
REMARK  191  A    between atoms: _467  and  _470
REMARK  192  A    between atoms: _470  and  _471
REMARK  193  A    between atoms: _471  and  _472
REMARK  194  A    between atoms: _475  and  _477
REMARK  195  A    between atoms: _477  and  _478
REMARK  196  A    between atoms: _477  and  _480
REMARK  197  A    between atoms: _480  and  _481
REMARK  198  A    between atoms: _484  and  _486
REMARK  199  A    between atoms: _486  and  _487
REMARK  200  A    between atoms: _489  and  _491
REMARK  201  A    between atoms: _491  and  _492
REMARK  202  A    between atoms: _494  and  _496
REMARK  203  A    between atoms: _496  and  _497
REMARK  204  A    between atoms: _496  and  _499
REMARK  205  A    between atoms: _499  and  _500
REMARK  206  A    between atoms: _500  and  _501
REMARK  207  A    between atoms: _506  and  _508
REMARK  208  A    between atoms: _508  and  _509
REMARK  209  A    between atoms: _512  and  _514
REMARK  210  A    between atoms: _514  and  _515
REMARK  211  A    between atoms: _514  and  _517
REMARK  212  A    between atoms: _517  and  _518
REMARK  213  A    between atoms: _521  and  _523
REMARK  214  A    between atoms: _523  and  _524
REMARK  215  A    between atoms: _523  and  _526
REMARK  216  A    between atoms: _526  and  _527
REMARK  217  A    between atoms: _527  and  _528
REMARK  218  A    between atoms: _533  and  _535
REMARK  219  A    between atoms: _535  and  _536
REMARK  220  A    between atoms: _535  and  _538
REMARK  221  A    between atoms: _538  and  _539
REMARK  222  A    between atoms: _542  and  _544
REMARK  223  A    between atoms: _544  and  _545
REMARK  224  A    between atoms: _544  and  _547
REMARK  225  A    between atoms: _547  and  _548
REMARK  226  A    between atoms: _548  and  _549
REMARK  227  A    between atoms: _549  and  _550
REMARK                            x       y       z     vdW  Elec       q    Type
REMARK                         _______ _______ _______ _____ _____    ______ ____
ROOT
ATOM      1  O   HOH     1     -18.162  -8.639  15.528  0.00  0.00    +0.000 OA
ENDROOT
TORSDOF 0
REMARK  Name = ../refined-set-2016/4r75/4r75_pocket.pdb
REMARK  227 active torsions:
REMARK  status: ('A' for Active; 'I' for Inactive)
REMARK    1  A    between atoms: _1  and  _3
REMARK    2  A    between atoms: _3  and  _4
REMARK    3  A    between atoms: _3  and  _6
REMARK    4  A    between atoms: _8  and  _10
REMARK    5  A    between atoms: _10  and  _11
REMARK    6  A    between atoms: _10  and  _13
REMARK    7  A    between atoms: _13  and  _14
REMARK    8  A    between atoms: _16  and  _18
REMARK    9  A    between atoms: _18  and  _19
REMARK   10  A    between atoms: _22  and  _24
REMARK   11  A    between atoms: _24  and  _25
REMARK   12  A    between atoms: _24  and  _27
REMARK   13  A    between atoms: _27  and  _28
REMARK   14  A    between atoms: _31  and  _33
REMARK   15  A    between atoms: _33  and  _34
REMARK   16  A    between atoms: _33  and  _36
REMARK   17  A    between atoms: _36  and  _37
REMARK   18  A    between atoms: _42  and  _44
REMARK   19  A    between atoms: _44  and  _45
REMARK   20  A    between atoms: _44  and  _47
REMARK   21  A    between atoms: _47  and  _48
REMARK   22  A    between atoms: _48  and  _49
REMARK   23  A    between atoms: _51  and  _53
REMARK   24  A    between atoms: _53  and  _54
REMARK   25  A    between atoms: _53  and  _56
REMARK   26  A    between atoms: _56  and  _57
REMARK   27  A    between atoms: _57  and  _58
REMARK   28  A    between atoms: _58  and  _59
REMARK   29  A    between atoms: _68  and  _70
REMARK   30  A    between atoms: _70  and  _71
REMARK   31  A    between atoms: _70  and  _73
REMARK   32  A    between atoms: _73  and  _74
REMARK   33  A    between atoms: _79  and  _81
REMARK   34  A    between atoms: _81  and  _82
REMARK   35  A    between atoms: _84  and  _86
REMARK   36  A    between atoms: _86  and  _87
REMARK   37  A    between atoms: _86  and  _89
REMARK   38  A    between atoms: _89  and  _90
REMARK   39  A    between atoms: _92  and  _94
REMARK   40  A    between atoms: _94  and  _95
REMARK   41  A    between atoms: _97  and  _99
REMARK   42  A    between atoms: _99  and  _100
REMARK   43  A    between atoms: _99  and  _102
REMARK   44  A    between atoms: _102  and  _103
REMARK   45  A    between atoms: _105  and  _107
REMARK   46  A    between atoms: _107  and  _108
REMARK   47  A    between atoms: _107  and  _110
REMARK   48  A    between atoms: _110  and  _111
REMARK   49  A    between atoms: _114  and  _116
REMARK   50  A    between atoms: _116  and  _117
REMARK   51  A    between atoms: _116  and  _119
REMARK   52  A    between atoms: _119  and  _120
REMARK   53  A    between atoms: _126  and  _128
REMARK   54  A    between atoms: _128  and  _129
REMARK   55  A    between atoms: _128  and  _131
REMARK   56  A    between atoms: _131  and  _132
REMARK   57  A    between atoms: _142  and  _144
REMARK   58  A    between atoms: _144  and  _145
REMARK   59  A    between atoms: _144  and  _147
REMARK   60  A    between atoms: _147  and  _148
REMARK   61  A    between atoms: _153  and  _154
REMARK   62  A    between atoms: _156  and  _158
REMARK   63  A    between atoms: _158  and  _159
REMARK   64  A    between atoms: _161  and  _163
REMARK   65  A    between atoms: _163  and  _164
REMARK   66  A    between atoms: _166  and  _168
REMARK   67  A    between atoms: _168  and  _169
REMARK   68  A    between atoms: _168  and  _171
REMARK   69  A    between atoms: _171  and  _172
REMARK   70  A    between atoms: _175  and  _177
REMARK   71  A    between atoms: _177  and  _178
REMARK   72  A    between atoms: _177  and  _180
REMARK   73  A    between atoms: _180  and  _181
REMARK   74  A    between atoms: _184  and  _186
REMARK   75  A    between atoms: _186  and  _187
REMARK   76  A    between atoms: _186  and  _189
REMARK   77  A    between atoms: _189  and  _190
REMARK   78  A    between atoms: _194  and  _195
REMARK   79  A    between atoms: _200  and  _202
REMARK   80  A    between atoms: _202  and  _203
REMARK   81  A    between atoms: _202  and  _205
REMARK   82  A    between atoms: _205  and  _206
REMARK   83  A    between atoms: _206  and  _207
REMARK   84  A    between atoms: _212  and  _214
REMARK   85  A    between atoms: _214  and  _215
REMARK   86  A    between atoms: _214  and  _217
REMARK   87  A    between atoms: _220  and  _222
REMARK   88  A    between atoms: _222  and  _223
REMARK   89  A    between atoms: _222  and  _225
REMARK   90  A    between atoms: _225  and  _226
REMARK   91  A    between atoms: _231  and  _232
REMARK   92  A    between atoms: _234  and  _236
REMARK   93  A    between atoms: _236  and  _237
REMARK   94  A    between atoms: _236  and  _239
REMARK   95  A    between atoms: _239  and  _240
REMARK   96  A    between atoms: _243  and  _245
REMARK   97  A    between atoms: _245  and  _246
REMARK   98  A    between atoms: _248  and  _250
REMARK   99  A    between atoms: _250  and  _251
REMARK  100  A    between atoms: _250  and  _253
REMARK  101  A    between atoms: _253  and  _254
REMARK  102  A    between atoms: _257  and  _259
REMARK  103  A    between atoms: _259  and  _260
REMARK  104  A    between atoms: _263  and  _265
REMARK  105  A    between atoms: _265  and  _266
REMARK  106  A    between atoms: _265  and  _268
REMARK  107  A    between atoms: _268  and  _269
REMARK  108  A    between atoms: _272  and  _274
REMARK  109  A    between atoms: _274  and  _275
REMARK  110  A    between atoms: _274  and  _277
REMARK  111  A    between atoms: _277  and  _278
REMARK  112  A    between atoms: _280  and  _282
REMARK  113  A    between atoms: _282  and  _283
REMARK  114  A    between atoms: _282  and  _285
REMARK  115  A    between atoms: _285  and  _286
REMARK  116  A    between atoms: _288  and  _290
REMARK  117  A    between atoms: _290  and  _291
REMARK  118  A    between atoms: _293  and  _295
REMARK  119  A    between atoms: _295  and  _296
REMARK  120  A    between atoms: _295  and  _298
REMARK  121  A    between atoms: _298  and  _299
REMARK  122  A    between atoms: _302  and  _304
REMARK  123  A    between atoms: _304  and  _305
REMARK  124  A    between atoms: _308  and  _310
REMARK  125  A    between atoms: _310  and  _311
REMARK  126  A    between atoms: _310  and  _313
REMARK  127  A    between atoms: _313  and  _314
REMARK  128  A    between atoms: _319  and  _320
REMARK  129  A    between atoms: _322  and  _324
REMARK  130  A    between atoms: _324  and  _325
REMARK  131  A    between atoms: _324  and  _327
REMARK  132  A    between atoms: _327  and  _328
REMARK  133  A    between atoms: _331  and  _333
REMARK  134  A    between atoms: _333  and  _334
REMARK  135  A    between atoms: _337  and  _339
REMARK  136  A    between atoms: _339  and  _340
REMARK  137  A    between atoms: _339  and  _342
REMARK  138  A    between atoms: _342  and  _343
REMARK  139  A    between atoms: _346  and  _348
REMARK  140  A    between atoms: _348  and  _349
REMARK  141  A    between atoms: _348  and  _351
REMARK  142  A    between atoms: _351  and  _352
REMARK  143  A    between atoms: _352  and  _353
REMARK  144  A    between atoms: _353  and  _354
REMARK  145  A    between atoms: _354  and  _355
REMARK  146  A    between atoms: _359  and  _361
REMARK  147  A    between atoms: _361  and  _362
REMARK  148  A    between atoms: _361  and  _364
REMARK  149  A    between atoms: _364  and  _365
REMARK  150  A    between atoms: _367  and  _369
REMARK  151  A    between atoms: _369  and  _370
REMARK  152  A    between atoms: _372  and  _374
REMARK  153  A    between atoms: _374  and  _375
REMARK  154  A    between atoms: _374  and  _377
REMARK  155  A    between atoms: _377  and  _378
REMARK  156  A    between atoms: _381  and  _383
REMARK  157  A    between atoms: _383  and  _384
REMARK  158  A    between atoms: _383  and  _386
REMARK  159  A    between atoms: _386  and  _387
REMARK  160  A    between atoms: _390  and  _392
REMARK  161  A    between atoms: _392  and  _393
REMARK  162  A    between atoms: _396  and  _398
REMARK  163  A    between atoms: _398  and  _399
REMARK  164  A    between atoms: _401  and  _403
REMARK  165  A    between atoms: _403  and  _404
REMARK  166  A    between atoms: _403  and  _406
REMARK  167  A    between atoms: _406  and  _407
REMARK  168  A    between atoms: _413  and  _415
REMARK  169  A    between atoms: _415  and  _416
REMARK  170  A    between atoms: _415  and  _418
REMARK  171  A    between atoms: _418  and  _419
REMARK  172  A    between atoms: _422  and  _424
REMARK  173  A    between atoms: _424  and  _425
REMARK  174  A    between atoms: _424  and  _427
REMARK  175  A    between atoms: _427  and  _428
REMARK  176  A    between atoms: _433  and  _435
REMARK  177  A    between atoms: _435  and  _436
REMARK  178  A    between atoms: _435  and  _438
REMARK  179  A    between atoms: _438  and  _439
REMARK  180  A    between atoms: _442  and  _444
REMARK  181  A    between atoms: _444  and  _445
REMARK  182  A    between atoms: _444  and  _447
REMARK  183  A    between atoms: _447  and  _448
REMARK  184  A    between atoms: _453  and  _454
REMARK  185  A    between atoms: _456  and  _458
REMARK  186  A    between atoms: _458  and  _459
REMARK  187  A    between atoms: _458  and  _461
REMARK  188  A    between atoms: _461  and  _462
REMARK  189  A    between atoms: _465  and  _467
REMARK  190  A    between atoms: _467  and  _468
REMARK  191  A    between atoms: _467  and  _470
REMARK  192  A    between atoms: _470  and  _471
REMARK  193  A    between atoms: _471  and  _472
REMARK  194  A    between atoms: _475  and  _477
REMARK  195  A    between atoms: _477  and  _478
REMARK  196  A    between atoms: _477  and  _480
REMARK  197  A    between atoms: _480  and  _481
REMARK  198  A    between atoms: _484  and  _486
REMARK  199  A    between atoms: _486  and  _487
REMARK  200  A    between atoms: _489  and  _491
REMARK  201  A    between atoms: _491  and  _492
REMARK  202  A    between atoms: _494  and  _496
REMARK  203  A    between atoms: _496  and  _497
REMARK  204  A    between atoms: _496  and  _499
REMARK  205  A    between atoms: _499  and  _500
REMARK  206  A    between atoms: _500  and  _501
REMARK  207  A    between atoms: _506  and  _508
REMARK  208  A    between atoms: _508  and  _509
REMARK  209  A    between atoms: _512  and  _514
REMARK  210  A    between atoms: _514  and  _515
REMARK  211  A    between atoms: _514  and  _517
REMARK  212  A    between atoms: _517  and  _518
REMARK  213  A    between atoms: _521  and  _523
REMARK  214  A    between atoms: _523  and  _524
REMARK  215  A    between atoms: _523  and  _526
REMARK  216  A    between atoms: _526  and  _527
REMARK  217  A    between atoms: _527  and  _528
REMARK  218  A    between atoms: _533  and  _535
REMARK  219  A    between atoms: _535  and  _536
REMARK  220  A    between atoms: _535  and  _538
REMARK  221  A    between atoms: _538  and  _539
REMARK  222  A    between atoms: _542  and  _544
REMARK  223  A    between atoms: _544  and  _545
REMARK  224  A    between atoms: _544  and  _547
REMARK  225  A    between atoms: _547  and  _548
REMARK  226  A    between atoms: _548  and  _549
REMARK  227  A    between atoms: _549  and  _550
REMARK                            x       y       z     vdW  Elec       q    Type
REMARK                         _______ _______ _______ _____ _____    ______ ____
ROOT
ATOM      1  O   HOH     1     -10.887  -7.344   4.651  0.00  0.00    +0.000 OA
ENDROOT
TORSDOF 0
