REMARK  Name = ../refined-set-2016/5d21/5d21_pocket.pdb
REMARK  89 active torsions:
REMARK  status: ('A' for Active; 'I' for Inactive)
REMARK    1  A    between atoms: _1  and  _3
REMARK    2  A    between atoms: _3  and  _4
REMARK    3  A    between atoms: _3  and  _6
REMARK    4  A    between atoms: _6  and  _7
REMARK    5  A    between atoms: _9  and  _11
REMARK    6  A    between atoms: _11  and  _12
REMARK    7  A    between atoms: _11  and  _14
REMARK    8  A    between atoms: _12  and  _13
REMARK    9  A    between atoms: _12  and  _23
REMARK   10  A    between atoms: _13  and  CA_229
REMARK   11  A    between atoms: _14  and  _15
REMARK   12  A    between atoms: _20  and  _21
REMARK   13  A    between atoms: _23  and  _25
REMARK   14  A    between atoms: _25  and  _26
REMARK   15  A    between atoms: _29  and  _30
REMARK   16  A    between atoms: _35  and  _37
REMARK   17  A    between atoms: _37  and  _38
REMARK   18  A    between atoms: _37  and  _40
REMARK   19  A    between atoms: _40  and  _41
REMARK   20  A    between atoms: _51  and  _53
REMARK   21  A    between atoms: _53  and  _54
REMARK   22  A    between atoms: _53  and  _56
REMARK   23  A    between atoms: _56  and  _57
REMARK   24  A    between atoms: _60  and  _62
REMARK   25  A    between atoms: _62  and  _63
REMARK   26  A    between atoms: _62  and  _65
REMARK   27  A    between atoms: _65  and  _66
REMARK   28  A    between atoms: _72  and  _73
REMARK   29  A    between atoms: _78  and  _80
REMARK   30  A    between atoms: _80  and  _81
REMARK   31  A    between atoms: _80  and  _83
REMARK   32  A    between atoms: _83  and  _84
REMARK   33  A    between atoms: _87  and  _89
REMARK   34  A    between atoms: _89  and  _90
REMARK   35  A    between atoms: _89  and  _92
REMARK   36  A    between atoms: _92  and  _93
REMARK   37  A    between atoms: _93  and  _94
REMARK   38  A    between atoms: _99  and  _101
REMARK   39  A    between atoms: _101  and  _102
REMARK   40  A    between atoms: _104  and  _106
REMARK   41  A    between atoms: _106  and  _107
REMARK   42  A    between atoms: _106  and  _109
REMARK   43  A    between atoms: _109  and  _110
REMARK   44  A    between atoms: _113  and  _115
REMARK   45  A    between atoms: _115  and  _116
REMARK   46  A    between atoms: _115  and  _118
REMARK   47  A    between atoms: _120  and  _122
REMARK   48  A    between atoms: _122  and  _123
REMARK   49  A    between atoms: _125  and  _127
REMARK   50  A    between atoms: _127  and  _128
REMARK   51  A    between atoms: _127  and  _130
REMARK   52  A    between atoms: _130  and  _131
REMARK   53  A    between atoms: _136  and  _137
REMARK   54  A    between atoms: _139  and  _141
REMARK   55  A    between atoms: _141  and  _142
REMARK   56  A    between atoms: _141  and  _144
REMARK   57  A    between atoms: _144  and  _145
REMARK   58  A    between atoms: _150  and  _152
REMARK   59  A    between atoms: _152  and  _153
REMARK   60  A    between atoms: _152  and  _155
REMARK   61  A    between atoms: _155  and  _156
REMARK   62  A    between atoms: _159  and  _161
REMARK   63  A    between atoms: _161  and  _162
REMARK   64  A    between atoms: _161  and  _164
REMARK   65  A    between atoms: _168  and  _169
REMARK   66  A    between atoms: _174  and  _176
REMARK   67  A    between atoms: _176  and  _177
REMARK   68  A    between atoms: _179  and  _181
REMARK   69  A    between atoms: _181  and  _182
REMARK   70  A    between atoms: _181  and  _184
REMARK   71  A    between atoms: _182  and  _183
REMARK   72  A    between atoms: _182  and  _188
REMARK   73  A    between atoms: _183  and  CA_229
REMARK   74  A    between atoms: _184  and  _185
REMARK   75  A    between atoms: _188  and  _190
REMARK   76  A    between atoms: _190  and  _191
REMARK   77  A    between atoms: _190  and  _193
REMARK   78  A    between atoms: _193  and  _194
REMARK   79  A    between atoms: _199  and  _200
REMARK   80  A    between atoms: _202  and  _204
REMARK   81  A    between atoms: _204  and  _205
REMARK   82  A    between atoms: _207  and  _209
REMARK   83  A    between atoms: _209  and  _210
REMARK   84  A    between atoms: _209  and  _212
REMARK   85  A    between atoms: _212  and  _213
REMARK   86  A    between atoms: _218  and  _220
REMARK   87  A    between atoms: _220  and  _221
REMARK   88  A    between atoms: _220  and  _223
REMARK   89  A    between atoms: _223  and  _224
REMARK                            x       y       z     vdW  Elec       q    Type
REMARK                         _______ _______ _______ _____ _____    ______ ____
ROOT
ATOM      1  C   UNK A   1       3.614 -20.850 -45.669  0.00  0.00    +0.000 C 
ENDROOT
BRANCH   1   2
ATOM      2  N   UNK A   1       4.199 -21.177 -44.524  0.00  0.00    +0.000 NA
ATOM      3  H   UNK A   1       4.104 -22.148 -44.165  0.00  0.00    +0.000 HD
BRANCH   2   4
ATOM      4  C   UNK A   1       4.975 -20.204 -43.755  0.00  0.00    +0.000 C 
BRANCH   4   5
ATOM      5  C   UNK A   1       6.364 -19.962 -44.345  0.00  0.00    +0.000 C 
ATOM      6  O   UNK A   1       7.038 -19.001 -43.986  0.00  0.00    +0.000 OA
ATOM      7  N   GLY A   2       6.781 -20.835 -45.256  0.00  0.00    +0.000 N 
ATOM      8  H   GLY A   2       6.127 -21.574 -45.585  0.00  0.00    +0.000 HD
BRANCH   7   9
ATOM      9  CA  GLY A   2       8.124 -20.785 -45.804  0.00  0.00    +0.000 C 
BRANCH   9  10
ATOM     10  C   GLY A   2       8.520 -19.498 -46.508  0.00  0.00    +0.000 C 
ATOM     11  O   GLY A   2       9.693 -19.129 -46.503  0.00  0.00    +0.000 OA
ATOM     12  N   ASN A   3       7.554 -18.810 -47.112  0.00  0.00    +0.000 N 
ATOM     13  H   ASN A   3       6.570 -19.140 -47.046  0.00  0.00    +0.000 HD
BRANCH  12  14
ATOM     14  CA  ASN A   3       7.859 -17.595 -47.867  0.00  0.00    +0.000 C 
BRANCH  14  15
ATOM     15  C   ASN A   3       7.493 -16.317 -47.117  0.00  0.00    +0.000 C 
ATOM     16  N   ASN A   4       7.220 -16.444 -45.824  0.00  0.00    +0.000 N 
ATOM     17  H   ASN A   4       7.232 -17.388 -45.387  0.00  0.00    +0.000 HD
ATOM     18  O   ASN A   3       7.461 -15.233 -47.701  0.00  0.00    +0.000 OA
BRANCH  16  19
ATOM     19  CA  ASN A   4       6.903 -15.276 -45.009  0.00  0.00    +0.000 C 
BRANCH  19  20
ATOM     20  C   ASN A   4       8.154 -14.496 -44.628  0.00  0.00    +0.000 C 
ATOM     21  O   ASN A   4       9.263 -15.031 -44.648  0.00  0.00    +0.000 OA
ENDBRANCH  19  20
BRANCH  19  22
ATOM     22  CB  ASN A   4       6.150 -15.694 -43.748  0.00  0.00    +0.000 C 
BRANCH  22  23
ATOM     23  CG  ASN A   4       4.865 -16.430 -44.057  0.00  0.00    +0.000 C 
ATOM     24  ND2 ASN A   4       4.199 -16.917 -43.019  0.00  0.00    +0.000 N 
ATOM     25 HD21 ASN A   4       4.561 -16.773 -42.055  0.00  0.00    +0.000 HD
ATOM     26 HD22 ASN A   4       3.314 -17.443 -43.169  0.00  0.00    +0.000 HD
ATOM     27  OD1 ASN A   4       4.481 -16.571 -45.218  0.00  0.00    +0.000 OA
ENDBRANCH  22  23
ENDBRANCH  19  22
ENDBRANCH  16  19
ENDBRANCH  14  15
BRANCH  14  28
ATOM     28  CB  ASN A   3       7.150 -17.619 -49.227  0.00  0.00    +0.000 C 
BRANCH  28  29
ATOM     29  CG  ASN A   3       5.641 -17.540 -49.102  0.00  0.00    +0.000 C 
ATOM     30  OD1 ASN A   3       5.085 -17.781 -48.032  0.00  0.00    +0.000 OA
ATOM     31  ND2 ASN A   3       4.969 -17.211 -50.203  0.00  0.00    +0.000 N 
ATOM     32 HD21 ASN A   3       3.931 -17.149 -50.180  0.00  0.00    +0.000 HD
ATOM     33 HD22 ASN A   3       5.482 -17.016 -51.086  0.00  0.00    +0.000 HD
ENDBRANCH  28  29
ENDBRANCH  14  28
ENDBRANCH  12  14
ENDBRANCH   9  10
ENDBRANCH   7   9
ENDBRANCH   4   5
BRANCH   4  34
ATOM     34  C   UNK A   1       5.110 -20.665 -42.300  0.00  0.00    +0.000 C 
BRANCH  34  35
ATOM     35  C   UNK A   1       3.895 -20.387 -41.446  0.00  0.00    +0.000 A 
ATOM     36  C   UNK A   1       3.902 -19.362 -40.503  0.00  0.00    +0.000 A 
ATOM     37  C   UNK A   1       2.790 -19.110 -39.712  0.00  0.00    +0.000 A 
ATOM     38  C   UNK A   1       1.659 -19.888 -39.861  0.00  0.00    +0.000 A 
ATOM     39  C   UNK A   1       1.633 -20.913 -40.785  0.00  0.00    +0.000 A 
ATOM     40  C   UNK A   1       2.743 -21.155 -41.572  0.00  0.00    +0.000 A 
BRANCH  38  41
ATOM     41  O   UNK A   1       0.548 -19.651 -39.083  0.00  0.00    +0.000 OA
ATOM     42  H   UNK A   1       0.225 -18.729 -39.243  0.00  0.00    +0.000 HD
ENDBRANCH  38  41
ENDBRANCH  34  35
ENDBRANCH   4  34
ENDBRANCH   2   4
ENDBRANCH   1   2
BRANCH   1  43
ATOM     43  C   UNK A   1       2.802 -21.939 -46.370  0.00  0.00    +0.000 C 
BRANCH  43  44
ATOM     44  N   UNK A   1       2.460 -23.049 -45.486  0.00  0.00    +0.000 N 
ATOM     45  H   UNK A   1       1.907 -22.870 -44.624  0.00  0.00    +0.000 HD
ATOM     46  C   UNK A   1       2.849 -24.286 -45.774  0.00  0.00    +0.000 C 
ATOM     47  O   UNK A   1       3.533 -24.550 -46.764  0.00  0.00    +0.000 OA
BRANCH  46  48
ATOM     48  C   UNK A   1       2.413 -25.387 -44.825  0.00  0.00    +0.000 C 
BRANCH  48  49
ATOM     49  N   UNK A   1       1.625 -24.918 -43.705  0.00  0.00    +0.000 N 
ATOM     50  H   UNK A   1       2.110 -24.609 -42.839  0.00  0.00    +0.000 HD
ATOM     51  C   UNK A   1       0.298 -24.872 -43.754  0.00  0.00    +0.000 C 
ATOM     52  O   UNK A   1      -0.354 -25.178 -44.751  0.00  0.00    +0.000 OA
BRANCH  51  53
ATOM     53  C   UNK A   1      -0.412 -24.368 -42.500  0.00  0.00    +0.000 C 
ATOM     54  C   UNK A   1      -1.238 -25.477 -41.844  0.00  0.00    +0.000 C 
ATOM     55  C   UNK A   1      -2.399 -24.766 -41.245  0.00  0.00    +0.000 C 
ATOM     56  C   UNK A   1      -2.710 -23.622 -42.170  0.00  0.00    +0.000 C 
ATOM     57  N   UNK A   1      -1.416 -23.347 -42.820  0.00  0.00    +0.000 N 
ATOM     58  C   UNK A   1      -1.082 -22.265 -43.542  0.00  0.00    +0.000 C 
ATOM     59  O   UNK A   1       0.073 -22.047 -43.921  0.00  0.00    +0.000 OA
BRANCH  58  60
ATOM     60  C   UNK A   1      -2.195 -21.264 -43.848  0.00  0.00    +0.000 C 
BRANCH  60  61
ATOM     61  N   UNK A   1      -1.728 -19.912 -43.581  0.00  0.00    +0.000 N 
ATOM     62  C   UNK A   1      -1.701 -19.423 -42.348  0.00  0.00    +0.000 C 
ATOM     63  O   UNK A   1      -2.130 -20.048 -41.375  0.00  0.00    +0.000 OA
ATOM     64  H   UNK A   1      -1.409 -19.317 -44.372  0.00  0.00    +0.000 HD
BRANCH  62  65
ATOM     65  C   UNK A   1      -1.119 -18.022 -42.184  0.00  0.00    +0.000 C 
BRANCH  65  66
ATOM     66  N   UNK A   1      -1.281 -17.602 -40.794  0.00  0.00    +0.000 N 
ATOM     67  H   UNK A   1      -1.236 -18.314 -40.037  0.00  0.00    +0.000 HD
ATOM     68  C   UNK A   1      -1.485 -16.328 -40.478  0.00  0.00    +0.000 C 
ATOM     69  O   UNK A   1      -1.470 -15.422 -41.312  0.00  0.00    +0.000 OA
BRANCH  68  70
ATOM     70  C   UNK A   1      -1.727 -16.032 -39.000  0.00  0.00    +0.000 C 
BRANCH  70  71
ATOM     71  N   UNK A   1      -0.574 -15.373 -38.397  0.00  0.00    +0.000 N 
ATOM     72  C   UNK A   1       0.473 -16.084 -37.990  0.00  0.00    +0.000 C 
ATOM     73  O   UNK A   1       0.539 -17.305 -38.135  0.00  0.00    +0.000 OA
ATOM     74  H   UNK A   1      -0.571 -14.339 -38.285  0.00  0.00    +0.000 HD
BRANCH  72  75
ATOM     75  C   UNK A   1       1.602 -15.328 -37.296  0.00  0.00    +0.000 C 
BRANCH  75  76
ATOM     76  N   UNK A   1       1.992 -16.056 -36.093  0.00  0.00    +0.000 NA
ATOM     77  H   UNK A   1       2.880 -16.597 -36.099  0.00  0.00    +0.000 HD
ENDBRANCH  75  76
BRANCH  75  78
ATOM     78  C   UNK A   1       2.806 -15.169 -38.220  0.00  0.00    +0.000 C 
BRANCH  78  79
ATOM     79  C   UNK A   1       2.634 -14.213 -39.375  0.00  0.00    +0.000 A 
ATOM     80  C   UNK A   1       2.582 -12.841 -39.164  0.00  0.00    +0.000 A 
ATOM     81  C   UNK A   1       2.453 -11.961 -40.219  0.00  0.00    +0.000 A 
ATOM     82  C   UNK A   1       2.389 -12.445 -41.509  0.00  0.00    +0.000 A 
ATOM     83  C   UNK A   1       2.450 -13.803 -41.751  0.00  0.00    +0.000 A 
ATOM     84  C   UNK A   1       2.578 -14.679 -40.684  0.00  0.00    +0.000 A 
BRANCH  82  85
ATOM     85  O   UNK A   1       2.261 -11.562 -42.556  0.00  0.00    +0.000 OA
ATOM     86  H   UNK A   1       2.233 -10.637 -42.204  0.00  0.00    +0.000 HD
ENDBRANCH  82  85
ENDBRANCH  78  79
ENDBRANCH  75  78
ENDBRANCH  72  75
ENDBRANCH  70  71
BRANCH  70  87
ATOM     87  C   UNK A   1      -2.988 -15.179 -38.823  0.00  0.00    +0.000 C 
BRANCH  87  88
ATOM     88  C   UNK A   1      -4.269 -15.965 -39.061  0.00  0.00    +0.000 C 
ATOM     89  O   UNK A   1      -4.288 -17.193 -38.970  0.00  0.00    +0.000 OA
ATOM     90  N   UNK A   1      -5.351 -15.254 -39.360  0.00  0.00    +0.000 N 
ATOM     91  H   UNK A   1      -5.290 -14.218 -39.427  0.00  0.00    +0.000 HD
ATOM     92  H   UNK A   1      -6.259 -15.734 -39.527  0.00  0.00    +0.000 HD
ENDBRANCH  87  88
ENDBRANCH  70  87
ENDBRANCH  68  70
ENDBRANCH  65  66
BRANCH  65  93
ATOM     93  C   UNK A   1       0.358 -17.991 -42.597  0.00  0.00    +0.000 C 
BRANCH  93  94
ATOM     94  C   UNK A   1       0.557 -17.819 -44.101  0.00  0.00    +0.000 C 
ATOM     95  O   UNK A   1       1.717 -17.604 -44.526  0.00  0.00    +0.000 OA
ATOM     96  O   UNK A   1      -0.431 -17.906 -44.867  0.00  0.00    +0.000 OA
ENDBRANCH  93  94
ENDBRANCH  65  93
ENDBRANCH  62  65
ENDBRANCH  60  61
BRANCH  60  97
ATOM     97  C   UNK A   1      -2.668 -21.404 -45.310  0.00  0.00    +0.000 C 
ATOM     98  C   UNK A   1      -3.799 -20.428 -45.579  0.00  0.00    +0.000 C 
ATOM     99  C   UNK A   1      -3.108 -22.834 -45.610  0.00  0.00    +0.000 C 
ENDBRANCH  60  97
ENDBRANCH  58  60
ENDBRANCH  51  53
ENDBRANCH  48  49
ENDBRANCH  46  48
ENDBRANCH  43  44
BRANCH  43 100
ATOM    100  C   UNK A   1       1.535 -21.282 -46.975  0.00  0.00    +0.000 C 
ATOM    101  C   UNK A   1       0.640 -22.327 -47.625  0.00  0.00    +0.000 C 
BRANCH 100 102
ATOM    102  O   UNK A   1       0.807 -20.589 -45.947  0.00  0.00    +0.000 OA
ATOM    103  H   UNK A   1       0.539 -21.232 -45.244  0.00  0.00    +0.000 HD
ENDBRANCH 100 102
ENDBRANCH  43 100
ENDBRANCH   1  43
BRANCH   1 104
ATOM    104  O   UNK A   1       3.717 -19.734 -46.170  0.00  0.00    +0.000 OA
BRANCH 104 105
ATOM    105 CA   UNK A   1       2.896 -17.638 -46.725  0.00  0.00    +0.000 Ca
BRANCH 105 106
ATOM    106  O   UNK A   1       2.955 -15.492 -47.454  0.00  0.00    +0.000 OA
BRANCH 106 107
ATOM    107  C   UNK A   1       3.203 -14.352 -47.066  0.00  0.00    +0.000 C 
BRANCH 107 108
ATOM    108  N   UNK A   1       3.909 -13.487 -47.787  0.00  0.00    +0.000 NA
ATOM    109  H   UNK A   1       4.120 -12.547 -47.394  0.00  0.00    +0.000 HD
BRANCH 108 110
ATOM    110  C   UNK A   1       4.392 -13.831 -49.115  0.00  0.00    +0.000 C 
BRANCH 110 111
ATOM    111  C   UNK A   1       4.667 -12.661 -50.048  0.00  0.00    +0.000 C 
ATOM    112  N   UNK A   1       3.671 -11.780 -50.253  0.00  0.00    +0.000 N 
ATOM    113  C   UNK A   1       2.274 -11.882 -49.798  0.00  0.00    +0.000 C 
ATOM    114  C   UNK A   1       1.544 -10.963 -50.729  0.00  0.00    +0.000 C 
ATOM    115  C   UNK A   1       2.523  -9.896 -51.058  0.00  0.00    +0.000 C 
ATOM    116  C   UNK A   1       3.871 -10.619 -51.128  0.00  0.00    +0.000 C 
ATOM    117  O   UNK A   1       5.762 -12.562 -50.600  0.00  0.00    +0.000 OA
BRANCH 116 118
ATOM    118  C   UNK A   1       4.999  -9.691 -50.677  0.00  0.00    +0.000 C 
ATOM    119  O   UNK A   1       5.372  -9.681 -49.503  0.00  0.00    +0.000 OA
ENDBRANCH 116 118
ENDBRANCH 110 111
ENDBRANCH 108 110
ENDBRANCH 107 108
BRANCH 107 120
ATOM    120  C   UNK A   1       2.699 -13.858 -45.711  0.00  0.00    +0.000 C 
BRANCH 120 123
ATOM    121  C   UNK A   1       4.096 -12.001 -44.975  0.00  0.00    +0.000 C 
ATOM    122  O   UNK A   1       4.942 -12.742 -44.486  0.00  0.00    +0.000 OA
ATOM    123  N   UNK A   1       2.980 -12.441 -45.544  0.00  0.00    +0.000 N 
ATOM    124  H   UNK A   1       2.282 -11.748 -45.882  0.00  0.00    +0.000 HD
BRANCH 121 125
ATOM    125  C   UNK A   1       4.284 -10.494 -44.963  0.00  0.00    +0.000 C 
BRANCH 125 126
ATOM    126  N   UNK A   1       4.965 -10.059 -43.751  0.00  0.00    +0.000 NA
ATOM    127  H   UNK A   1       5.773 -10.614 -43.403  0.00  0.00    +0.000 HD
ENDBRANCH 125 126
BRANCH 125 128
ATOM    128  C   UNK A   1       5.065 -10.069 -46.208  0.00  0.00    +0.000 C 
BRANCH 128 129
ATOM    129  O   UNK A   1       4.478 -10.616 -47.385  0.00  0.00    +0.000 OA
ATOM    130  H   UNK A   1       4.999 -10.328 -48.176  0.00  0.00    +0.000 HD
ENDBRANCH 128 129
ENDBRANCH 125 128
ENDBRANCH 121 125
ENDBRANCH 120 123
BRANCH 120 131
ATOM    131  C   UNK A   1       1.198 -14.119 -45.585  0.00  0.00    +0.000 C 
BRANCH 131 132
ATOM    132  C   UNK A   1       0.352 -13.243 -46.489  0.00  0.00    +0.000 A 
ATOM    133  C   UNK A   1      -0.065 -11.981 -46.076  0.00  0.00    +0.000 A 
ATOM    134  C   UNK A   1      -0.835 -11.173 -46.898  0.00  0.00    +0.000 A 
ATOM    135  C   UNK A   1      -1.197 -11.623 -48.153  0.00  0.00    +0.000 A 
ATOM    136  C   UNK A   1      -0.797 -12.873 -48.586  0.00  0.00    +0.000 A 
ATOM    137  C   UNK A   1      -0.026 -13.674 -47.755  0.00  0.00    +0.000 A 
BRANCH 135 138
ATOM    138  O   UNK A   1      -1.961 -10.823 -48.972  0.00  0.00    +0.000 OA
ATOM    139  H   UNK A   1      -2.156  -9.970 -48.509  0.00  0.00    +0.000 HD
ENDBRANCH 135 138
ENDBRANCH 131 132
ENDBRANCH 120 131
ENDBRANCH 107 120
ENDBRANCH 106 107
ENDBRANCH 105 106
ENDBRANCH 104 105
ENDBRANCH   1 104
TORSDOF 56
REMARK  Name = ../refined-set-2016/5d21/5d21_pocket.pdb
REMARK  89 active torsions:
REMARK  status: ('A' for Active; 'I' for Inactive)
REMARK    1  A    between atoms: _1  and  _3
REMARK    2  A    between atoms: _3  and  _4
REMARK    3  A    between atoms: _3  and  _6
REMARK    4  A    between atoms: _6  and  _7
REMARK    5  A    between atoms: _9  and  _11
REMARK    6  A    between atoms: _11  and  _12
REMARK    7  A    between atoms: _11  and  _14
REMARK    8  A    between atoms: _12  and  _13
REMARK    9  A    between atoms: _12  and  _23
REMARK   10  A    between atoms: _13  and  CA_229
REMARK   11  A    between atoms: _14  and  _15
REMARK   12  A    between atoms: _20  and  _21
REMARK   13  A    between atoms: _23  and  _25
REMARK   14  A    between atoms: _25  and  _26
REMARK   15  A    between atoms: _29  and  _30
REMARK   16  A    between atoms: _35  and  _37
REMARK   17  A    between atoms: _37  and  _38
REMARK   18  A    between atoms: _37  and  _40
REMARK   19  A    between atoms: _40  and  _41
REMARK   20  A    between atoms: _51  and  _53
REMARK   21  A    between atoms: _53  and  _54
REMARK   22  A    between atoms: _53  and  _56
REMARK   23  A    between atoms: _56  and  _57
REMARK   24  A    between atoms: _60  and  _62
REMARK   25  A    between atoms: _62  and  _63
REMARK   26  A    between atoms: _62  and  _65
REMARK   27  A    between atoms: _65  and  _66
REMARK   28  A    between atoms: _72  and  _73
REMARK   29  A    between atoms: _78  and  _80
REMARK   30  A    between atoms: _80  and  _81
REMARK   31  A    between atoms: _80  and  _83
REMARK   32  A    between atoms: _83  and  _84
REMARK   33  A    between atoms: _87  and  _89
REMARK   34  A    between atoms: _89  and  _90
REMARK   35  A    between atoms: _89  and  _92
REMARK   36  A    between atoms: _92  and  _93
REMARK   37  A    between atoms: _93  and  _94
REMARK   38  A    between atoms: _99  and  _101
REMARK   39  A    between atoms: _101  and  _102
REMARK   40  A    between atoms: _104  and  _106
REMARK   41  A    between atoms: _106  and  _107
REMARK   42  A    between atoms: _106  and  _109
REMARK   43  A    between atoms: _109  and  _110
REMARK   44  A    between atoms: _113  and  _115
REMARK   45  A    between atoms: _115  and  _116
REMARK   46  A    between atoms: _115  and  _118
REMARK   47  A    between atoms: _120  and  _122
REMARK   48  A    between atoms: _122  and  _123
REMARK   49  A    between atoms: _125  and  _127
REMARK   50  A    between atoms: _127  and  _128
REMARK   51  A    between atoms: _127  and  _130
REMARK   52  A    between atoms: _130  and  _131
REMARK   53  A    between atoms: _136  and  _137
REMARK   54  A    between atoms: _139  and  _141
REMARK   55  A    between atoms: _141  and  _142
REMARK   56  A    between atoms: _141  and  _144
REMARK   57  A    between atoms: _144  and  _145
REMARK   58  A    between atoms: _150  and  _152
REMARK   59  A    between atoms: _152  and  _153
REMARK   60  A    between atoms: _152  and  _155
REMARK   61  A    between atoms: _155  and  _156
REMARK   62  A    between atoms: _159  and  _161
REMARK   63  A    between atoms: _161  and  _162
REMARK   64  A    between atoms: _161  and  _164
REMARK   65  A    between atoms: _168  and  _169
REMARK   66  A    between atoms: _174  and  _176
REMARK   67  A    between atoms: _176  and  _177
REMARK   68  A    between atoms: _179  and  _181
REMARK   69  A    between atoms: _181  and  _182
REMARK   70  A    between atoms: _181  and  _184
REMARK   71  A    between atoms: _182  and  _183
REMARK   72  A    between atoms: _182  and  _188
REMARK   73  A    between atoms: _183  and  CA_229
REMARK   74  A    between atoms: _184  and  _185
REMARK   75  A    between atoms: _188  and  _190
REMARK   76  A    between atoms: _190  and  _191
REMARK   77  A    between atoms: _190  and  _193
REMARK   78  A    between atoms: _193  and  _194
REMARK   79  A    between atoms: _199  and  _200
REMARK   80  A    between atoms: _202  and  _204
REMARK   81  A    between atoms: _204  and  _205
REMARK   82  A    between atoms: _207  and  _209
REMARK   83  A    between atoms: _209  and  _210
REMARK   84  A    between atoms: _209  and  _212
REMARK   85  A    between atoms: _212  and  _213
REMARK   86  A    between atoms: _218  and  _220
REMARK   87  A    between atoms: _220  and  _221
REMARK   88  A    between atoms: _220  and  _223
REMARK   89  A    between atoms: _223  and  _224
REMARK                            x       y       z     vdW  Elec       q    Type
REMARK                         _______ _______ _______ _____ _____    ______ ____
ROOT
ATOM      1  CG  TRP A   1      -0.491  -6.300 -44.899  0.00  0.00    -0.002 A 
ATOM      2  CD1 TRP A   1      -1.533  -5.539 -45.344  0.00  0.00    +0.068 A 
ATOM      3  NE1 TRP A   1      -1.716  -5.734 -46.692  0.00  0.00    -0.352 N 
ATOM      4  CE2 TRP A   1      -0.788  -6.634 -47.143  0.00  0.00    +0.056 A 
ATOM      5  CZ2 TRP A   1      -0.576  -7.143 -48.425  0.00  0.00    +0.017 A 
ATOM      6  CH2 TRP A   1       0.439  -8.046 -48.586  0.00  0.00    +0.001 A 
ATOM      7  CZ3 TRP A   1       1.245  -8.442 -47.506  0.00  0.00    +0.000 A 
ATOM      8  CE3 TRP A   1       1.037  -7.935 -46.238  0.00  0.00    +0.001 A 
ATOM      9  HE1 TRP A   1      -2.442  -5.272 -47.276  0.00  0.00    +0.166 HD
ATOM     10  CD2 TRP A   1       0.003  -7.015 -46.039  0.00  0.00    +0.013 A 
ENDROOT
BRANCH   1  11
ATOM     11  CB  TRP A   1       0.033  -6.378 -43.493  0.00  0.00    +0.053 C 
BRANCH  11  12
ATOM     12  CA  TRP A   1       1.231  -5.463 -43.208  0.00  0.00    +0.137 C 
BRANCH  12  13
ATOM     13  N   TRP A   1       2.409  -5.910 -43.942  0.00  0.00    -0.239 NA
ATOM     14  H   TRP A   1       2.867  -6.800 -43.658  0.00  0.00    +0.142 HD
ENDBRANCH  12  13
BRANCH  12  15
ATOM     15  C   TRP A   1       1.519  -5.436 -41.712  0.00  0.00    +0.224 C 
ATOM     16  O   TRP A   1       2.430  -6.115 -41.235  0.00  0.00    -0.287 OA
ENDBRANCH  12  15
ENDBRANCH  11  12
ENDBRANCH   1  11
TORSDOF 4
REMARK  Name = ../refined-set-2016/5d21/5d21_pocket.pdb
REMARK  89 active torsions:
REMARK  status: ('A' for Active; 'I' for Inactive)
REMARK    1  A    between atoms: _1  and  _3
REMARK    2  A    between atoms: _3  and  _4
REMARK    3  A    between atoms: _3  and  _6
REMARK    4  A    between atoms: _6  and  _7
REMARK    5  A    between atoms: _9  and  _11
REMARK    6  A    between atoms: _11  and  _12
REMARK    7  A    between atoms: _11  and  _14
REMARK    8  A    between atoms: _12  and  _13
REMARK    9  A    between atoms: _12  and  _23
REMARK   10  A    between atoms: _13  and  CA_229
REMARK   11  A    between atoms: _14  and  _15
REMARK   12  A    between atoms: _20  and  _21
REMARK   13  A    between atoms: _23  and  _25
REMARK   14  A    between atoms: _25  and  _26
REMARK   15  A    between atoms: _29  and  _30
REMARK   16  A    between atoms: _35  and  _37
REMARK   17  A    between atoms: _37  and  _38
REMARK   18  A    between atoms: _37  and  _40
REMARK   19  A    between atoms: _40  and  _41
REMARK   20  A    between atoms: _51  and  _53
REMARK   21  A    between atoms: _53  and  _54
REMARK   22  A    between atoms: _53  and  _56
REMARK   23  A    between atoms: _56  and  _57
REMARK   24  A    between atoms: _60  and  _62
REMARK   25  A    between atoms: _62  and  _63
REMARK   26  A    between atoms: _62  and  _65
REMARK   27  A    between atoms: _65  and  _66
REMARK   28  A    between atoms: _72  and  _73
REMARK   29  A    between atoms: _78  and  _80
REMARK   30  A    between atoms: _80  and  _81
REMARK   31  A    between atoms: _80  and  _83
REMARK   32  A    between atoms: _83  and  _84
REMARK   33  A    between atoms: _87  and  _89
REMARK   34  A    between atoms: _89  and  _90
REMARK   35  A    between atoms: _89  and  _92
REMARK   36  A    between atoms: _92  and  _93
REMARK   37  A    between atoms: _93  and  _94
REMARK   38  A    between atoms: _99  and  _101
REMARK   39  A    between atoms: _101  and  _102
REMARK   40  A    between atoms: _104  and  _106
REMARK   41  A    between atoms: _106  and  _107
REMARK   42  A    between atoms: _106  and  _109
REMARK   43  A    between atoms: _109  and  _110
REMARK   44  A    between atoms: _113  and  _115
REMARK   45  A    between atoms: _115  and  _116
REMARK   46  A    between atoms: _115  and  _118
REMARK   47  A    between atoms: _120  and  _122
REMARK   48  A    between atoms: _122  and  _123
REMARK   49  A    between atoms: _125  and  _127
REMARK   50  A    between atoms: _127  and  _128
REMARK   51  A    between atoms: _127  and  _130
REMARK   52  A    between atoms: _130  and  _131
REMARK   53  A    between atoms: _136  and  _137
REMARK   54  A    between atoms: _139  and  _141
REMARK   55  A    between atoms: _141  and  _142
REMARK   56  A    between atoms: _141  and  _144
REMARK   57  A    between atoms: _144  and  _145
REMARK   58  A    between atoms: _150  and  _152
REMARK   59  A    between atoms: _152  and  _153
REMARK   60  A    between atoms: _152  and  _155
REMARK   61  A    between atoms: _155  and  _156
REMARK   62  A    between atoms: _159  and  _161
REMARK   63  A    between atoms: _161  and  _162
REMARK   64  A    between atoms: _161  and  _164
REMARK   65  A    between atoms: _168  and  _169
REMARK   66  A    between atoms: _174  and  _176
REMARK   67  A    between atoms: _176  and  _177
REMARK   68  A    between atoms: _179  and  _181
REMARK   69  A    between atoms: _181  and  _182
REMARK   70  A    between atoms: _181  and  _184
REMARK   71  A    between atoms: _182  and  _183
REMARK   72  A    between atoms: _182  and  _188
REMARK   73  A    between atoms: _183  and  CA_229
REMARK   74  A    between atoms: _184  and  _185
REMARK   75  A    between atoms: _188  and  _190
REMARK   76  A    between atoms: _190  and  _191
REMARK   77  A    between atoms: _190  and  _193
REMARK   78  A    between atoms: _193  and  _194
REMARK   79  A    between atoms: _199  and  _200
REMARK   80  A    between atoms: _202  and  _204
REMARK   81  A    between atoms: _204  and  _205
REMARK   82  A    between atoms: _207  and  _209
REMARK   83  A    between atoms: _209  and  _210
REMARK   84  A    between atoms: _209  and  _212
REMARK   85  A    between atoms: _212  and  _213
REMARK   86  A    between atoms: _218  and  _220
REMARK   87  A    between atoms: _220  and  _221
REMARK   88  A    between atoms: _220  and  _223
REMARK   89  A    between atoms: _223  and  _224
REMARK                            x       y       z     vdW  Elec       q    Type
REMARK                         _______ _______ _______ _____ _____    ______ ____
ROOT
ATOM      1  CA  ASP A   1      -4.267  -7.946 -44.783  0.00  0.00    +0.144 C 
ENDROOT
BRANCH   1   2
ATOM      2  N   ASP A   1      -3.793  -8.453 -43.498  0.00  0.00    -0.239 NA
ATOM      3  H   ASP A   1      -3.744  -9.482 -43.356  0.00  0.00    +0.142 HD
ENDBRANCH   1   2
BRANCH   1   4
ATOM      4  C   ASP A   1      -5.775  -8.161 -44.913  0.00  0.00    +0.225 C 
ATOM      5  O   ASP A   1      -6.241  -9.286 -45.093  0.00  0.00    -0.287 OA
ENDBRANCH   1   4
BRANCH   1   6
ATOM      6  CB  ASP A   1      -3.503  -8.634 -45.923  0.00  0.00    +0.139 C 
BRANCH   6   7
ATOM      7  CG  ASP A   1      -4.002  -8.239 -47.307  0.00  0.00    +0.367 C 
ATOM      8  OD2 ASP A   1      -4.811  -7.298 -47.433  0.00  0.00    -0.246 OA
ATOM      9  OD1 ASP A   1      -3.564  -8.881 -48.285  0.00  0.00    -0.246 OA
ENDBRANCH   6   7
ENDBRANCH   1   6
TORSDOF 4
REMARK  Name = ../refined-set-2016/5d21/5d21_pocket.pdb
REMARK  89 active torsions:
REMARK  status: ('A' for Active; 'I' for Inactive)
REMARK    1  A    between atoms: _1  and  _3
REMARK    2  A    between atoms: _3  and  _4
REMARK    3  A    between atoms: _3  and  _6
REMARK    4  A    between atoms: _6  and  _7
REMARK    5  A    between atoms: _9  and  _11
REMARK    6  A    between atoms: _11  and  _12
REMARK    7  A    between atoms: _11  and  _14
REMARK    8  A    between atoms: _12  and  _13
REMARK    9  A    between atoms: _12  and  _23
REMARK   10  A    between atoms: _13  and  CA_229
REMARK   11  A    between atoms: _14  and  _15
REMARK   12  A    between atoms: _20  and  _21
REMARK   13  A    between atoms: _23  and  _25
REMARK   14  A    between atoms: _25  and  _26
REMARK   15  A    between atoms: _29  and  _30
REMARK   16  A    between atoms: _35  and  _37
REMARK   17  A    between atoms: _37  and  _38
REMARK   18  A    between atoms: _37  and  _40
REMARK   19  A    between atoms: _40  and  _41
REMARK   20  A    between atoms: _51  and  _53
REMARK   21  A    between atoms: _53  and  _54
REMARK   22  A    between atoms: _53  and  _56
REMARK   23  A    between atoms: _56  and  _57
REMARK   24  A    between atoms: _60  and  _62
REMARK   25  A    between atoms: _62  and  _63
REMARK   26  A    between atoms: _62  and  _65
REMARK   27  A    between atoms: _65  and  _66
REMARK   28  A    between atoms: _72  and  _73
REMARK   29  A    between atoms: _78  and  _80
REMARK   30  A    between atoms: _80  and  _81
REMARK   31  A    between atoms: _80  and  _83
REMARK   32  A    between atoms: _83  and  _84
REMARK   33  A    between atoms: _87  and  _89
REMARK   34  A    between atoms: _89  and  _90
REMARK   35  A    between atoms: _89  and  _92
REMARK   36  A    between atoms: _92  and  _93
REMARK   37  A    between atoms: _93  and  _94
REMARK   38  A    between atoms: _99  and  _101
REMARK   39  A    between atoms: _101  and  _102
REMARK   40  A    between atoms: _104  and  _106
REMARK   41  A    between atoms: _106  and  _107
REMARK   42  A    between atoms: _106  and  _109
REMARK   43  A    between atoms: _109  and  _110
REMARK   44  A    between atoms: _113  and  _115
REMARK   45  A    between atoms: _115  and  _116
REMARK   46  A    between atoms: _115  and  _118
REMARK   47  A    between atoms: _120  and  _122
REMARK   48  A    between atoms: _122  and  _123
REMARK   49  A    between atoms: _125  and  _127
REMARK   50  A    between atoms: _127  and  _128
REMARK   51  A    between atoms: _127  and  _130
REMARK   52  A    between atoms: _130  and  _131
REMARK   53  A    between atoms: _136  and  _137
REMARK   54  A    between atoms: _139  and  _141
REMARK   55  A    between atoms: _141  and  _142
REMARK   56  A    between atoms: _141  and  _144
REMARK   57  A    between atoms: _144  and  _145
REMARK   58  A    between atoms: _150  and  _152
REMARK   59  A    between atoms: _152  and  _153
REMARK   60  A    between atoms: _152  and  _155
REMARK   61  A    between atoms: _155  and  _156
REMARK   62  A    between atoms: _159  and  _161
REMARK   63  A    between atoms: _161  and  _162
REMARK   64  A    between atoms: _161  and  _164
REMARK   65  A    between atoms: _168  and  _169
REMARK   66  A    between atoms: _174  and  _176
REMARK   67  A    between atoms: _176  and  _177
REMARK   68  A    between atoms: _179  and  _181
REMARK   69  A    between atoms: _181  and  _182
REMARK   70  A    between atoms: _181  and  _184
REMARK   71  A    between atoms: _182  and  _183
REMARK   72  A    between atoms: _182  and  _188
REMARK   73  A    between atoms: _183  and  CA_229
REMARK   74  A    between atoms: _184  and  _185
REMARK   75  A    between atoms: _188  and  _190
REMARK   76  A    between atoms: _190  and  _191
REMARK   77  A    between atoms: _190  and  _193
REMARK   78  A    between atoms: _193  and  _194
REMARK   79  A    between atoms: _199  and  _200
REMARK   80  A    between atoms: _202  and  _204
REMARK   81  A    between atoms: _204  and  _205
REMARK   82  A    between atoms: _207  and  _209
REMARK   83  A    between atoms: _209  and  _210
REMARK   84  A    between atoms: _209  and  _212
REMARK   85  A    between atoms: _212  and  _213
REMARK   86  A    between atoms: _218  and  _220
REMARK   87  A    between atoms: _220  and  _221
REMARK   88  A    between atoms: _220  and  _223
REMARK   89  A    between atoms: _223  and  _224
REMARK                            x       y       z     vdW  Elec       q    Type
REMARK                         _______ _______ _______ _____ _____    ______ ____
ROOT
ATOM      1  C   ASP A   3      -8.977 -18.193 -46.772  0.00  0.00    +0.241 C 
ATOM      2  N   GLN A   4      -7.786 -18.779 -46.839  0.00  0.00    -0.297 N 
ATOM      3  H   GLN A   4      -6.977 -18.343 -46.352  0.00  0.00    +0.150 HD
ATOM      4  O   ASP A   3      -9.986 -18.668 -47.295  0.00  0.00    -0.273 OA
ENDROOT
BRANCH   2   5
ATOM      5  CA  GLN A   4      -7.586 -20.021 -47.581  0.00  0.00    +0.149 C 
BRANCH   5   6
ATOM      6  C   GLN A   4      -7.182 -21.174 -46.672  0.00  0.00    +0.241 C 
ATOM      7  N   GLY A   5      -7.609 -21.110 -45.415  0.00  0.00    -0.295 N 
ATOM      8  H   GLY A   5      -8.189 -20.300 -45.116  0.00  0.00    +0.150 HD
ATOM      9  O   GLN A   4      -6.492 -22.101 -47.101  0.00  0.00    -0.273 OA
BRANCH   7  10
ATOM     10  CA  GLY A   5      -7.286 -22.142 -44.451  0.00  0.00    +0.176 C 
BRANCH  10  11
ATOM     11  C   GLY A   5      -6.388 -21.632 -43.342  0.00  0.00    +0.243 C 
ATOM     12  O   GLY A   5      -5.499 -22.346 -42.877  0.00  0.00    -0.273 OA
ATOM     13  N   LEU A   6      -6.622 -20.392 -42.923  0.00  0.00    -0.298 N 
ATOM     14  H   LEU A   6      -7.393 -19.850 -43.364  0.00  0.00    +0.150 HD
BRANCH  13  15
ATOM     15  CA  LEU A   6      -5.834 -19.763 -41.864  0.00  0.00    +0.137 C 
BRANCH  15  16
ATOM     16  C   LEU A   6      -5.960 -20.512 -40.543  0.00  0.00    +0.227 C 
ATOM     17  O   LEU A   6      -7.008 -21.088 -40.247  0.00  0.00    -0.286 OA
ENDBRANCH  15  16
BRANCH  15  18
ATOM     18  CB  LEU A   6      -6.270 -18.307 -41.675  0.00  0.00    +0.028 C 
BRANCH  18  19
ATOM     19  CG  LEU A   6      -6.024 -17.381 -42.869  0.00  0.00    +0.002 C 
ATOM     20  CD2 LEU A   6      -6.797 -16.081 -42.720  0.00  0.00    +0.000 C 
ATOM     21  CD1 LEU A   6      -4.535 -17.110 -43.040  0.00  0.00    +0.000 C 
ENDBRANCH  18  19
ENDBRANCH  15  18
ENDBRANCH  13  15
ENDBRANCH  10  11
ENDBRANCH   7  10
ENDBRANCH   5   6
BRANCH   5  22
ATOM     22  CB  GLN A   4      -6.523 -19.830 -48.667  0.00  0.00    +0.039 C 
BRANCH  22  23
ATOM     23  CG  GLN A   4      -6.872 -18.788 -49.713  0.00  0.00    +0.087 C 
BRANCH  23  24
ATOM     24  CD  GLN A   4      -5.831 -18.700 -50.811  0.00  0.00    +0.219 C 
ATOM     25  NE2 GLN A   4      -4.561 -18.629 -50.422  0.00  0.00    -0.329 N 
ATOM     26 HE21 GLN A   4      -4.326 -18.635 -49.409  0.00  0.00    +0.145 HD
ATOM     27 HE22 GLN A   4      -3.803 -18.567 -51.131  0.00  0.00    +0.145 HD
ATOM     28  OE1 GLN A   4      -6.163 -18.696 -51.997  0.00  0.00    -0.275 OA
ENDBRANCH  23  24
ENDBRANCH  22  23
ENDBRANCH   5  22
ENDBRANCH   2   5
BRANCH   1  29
ATOM     29  CA  ASP A   3      -9.050 -16.879 -45.999  0.00  0.00    +0.160 C 
BRANCH  29  31
ATOM     30  C   PRO A   2      -8.591 -15.303 -47.827  0.00  0.00    +0.241 C 
ATOM     31  N   ASP A   3      -9.414 -15.792 -46.904  0.00  0.00    -0.297 N 
ATOM     32  H   ASP A   3     -10.365 -15.379 -46.822  0.00  0.00    +0.150 HD
ATOM     33  O   PRO A   2      -7.414 -15.645 -47.942  0.00  0.00    -0.273 OA
BRANCH  30  37
ATOM     34  C   HIS A   1      -7.787 -12.318 -48.192  0.00  0.00    +0.242 C 
ATOM     35  O   HIS A   1      -8.174 -12.336 -47.022  0.00  0.00    -0.273 OA
ATOM     36  N   PRO A   2      -8.229 -13.187 -49.110  0.00  0.00    -0.272 N 
ATOM     37  CA  PRO A   2      -9.182 -14.246 -48.759  0.00  0.00    +0.152 C 
ATOM     38  CB  PRO A   2      -9.543 -14.860 -50.120  0.00  0.00    +0.031 C 
ATOM     39  CG  PRO A   2      -8.409 -14.486 -51.023  0.00  0.00    +0.024 C 
ATOM     40  CD  PRO A   2      -7.955 -13.144 -50.558  0.00  0.00    +0.094 C 
BRANCH  34  41
ATOM     41  CA  HIS A   1      -6.765 -11.285 -48.660  0.00  0.00    +0.151 C 
BRANCH  41  42
ATOM     42  N   HIS A   1      -7.133  -9.923 -48.288  0.00  0.00    -0.238 NA
ATOM     43  H   HIS A   1      -6.743  -9.511 -47.416  0.00  0.00    +0.142 HD
ENDBRANCH  41  42
BRANCH  41  44
ATOM     44  CB  HIS A   1      -5.391 -11.623 -48.090  0.00  0.00    +0.074 C 
BRANCH  44  45
ATOM     45  CG  HIS A   1      -4.773 -12.847 -48.688  0.00  0.00    +0.082 A 
ATOM     46  CD2 HIS A   1      -4.524 -14.069 -48.158  0.00  0.00    +0.115 A 
ATOM     47  NE2 HIS A   1      -3.936 -14.824 -49.146  0.00  0.00    -0.221 NA
ATOM     48  CE1 HIS A   1      -3.832 -14.093 -50.239  0.00  0.00    +0.199 A 
ATOM     49  ND1 HIS A   1      -4.329 -12.895 -49.990  0.00  0.00    -0.227 NA
ENDBRANCH  44  45
ENDBRANCH  41  44
ENDBRANCH  34  41
ENDBRANCH  30  37
ENDBRANCH  29  31
BRANCH  29  50
ATOM     50  CB  ASP A   3     -10.077 -16.976 -44.866  0.00  0.00    +0.143 C 
BRANCH  50  51
ATOM     51  CG  ASP A   3      -9.701 -17.989 -43.788  0.00  0.00    +0.367 C 
ATOM     52  OD2 ASP A   3     -10.287 -17.894 -42.692  0.00  0.00    -0.246 OA
ATOM     53  OD1 ASP A   3      -8.854 -18.879 -44.015  0.00  0.00    -0.246 OA
ENDBRANCH  50  51
ENDBRANCH  29  50
ENDBRANCH   1  29
TORSDOF 20
REMARK  Name = ../refined-set-2016/5d21/5d21_pocket.pdb
REMARK  89 active torsions:
REMARK  status: ('A' for Active; 'I' for Inactive)
REMARK    1  A    between atoms: _1  and  _3
REMARK    2  A    between atoms: _3  and  _4
REMARK    3  A    between atoms: _3  and  _6
REMARK    4  A    between atoms: _6  and  _7
REMARK    5  A    between atoms: _9  and  _11
REMARK    6  A    between atoms: _11  and  _12
REMARK    7  A    between atoms: _11  and  _14
REMARK    8  A    between atoms: _12  and  _13
REMARK    9  A    between atoms: _12  and  _23
REMARK   10  A    between atoms: _13  and  CA_229
REMARK   11  A    between atoms: _14  and  _15
REMARK   12  A    between atoms: _20  and  _21
REMARK   13  A    between atoms: _23  and  _25
REMARK   14  A    between atoms: _25  and  _26
REMARK   15  A    between atoms: _29  and  _30
REMARK   16  A    between atoms: _35  and  _37
REMARK   17  A    between atoms: _37  and  _38
REMARK   18  A    between atoms: _37  and  _40
REMARK   19  A    between atoms: _40  and  _41
REMARK   20  A    between atoms: _51  and  _53
REMARK   21  A    between atoms: _53  and  _54
REMARK   22  A    between atoms: _53  and  _56
REMARK   23  A    between atoms: _56  and  _57
REMARK   24  A    between atoms: _60  and  _62
REMARK   25  A    between atoms: _62  and  _63
REMARK   26  A    between atoms: _62  and  _65
REMARK   27  A    between atoms: _65  and  _66
REMARK   28  A    between atoms: _72  and  _73
REMARK   29  A    between atoms: _78  and  _80
REMARK   30  A    between atoms: _80  and  _81
REMARK   31  A    between atoms: _80  and  _83
REMARK   32  A    between atoms: _83  and  _84
REMARK   33  A    between atoms: _87  and  _89
REMARK   34  A    between atoms: _89  and  _90
REMARK   35  A    between atoms: _89  and  _92
REMARK   36  A    between atoms: _92  and  _93
REMARK   37  A    between atoms: _93  and  _94
REMARK   38  A    between atoms: _99  and  _101
REMARK   39  A    between atoms: _101  and  _102
REMARK   40  A    between atoms: _104  and  _106
REMARK   41  A    between atoms: _106  and  _107
REMARK   42  A    between atoms: _106  and  _109
REMARK   43  A    between atoms: _109  and  _110
REMARK   44  A    between atoms: _113  and  _115
REMARK   45  A    between atoms: _115  and  _116
REMARK   46  A    between atoms: _115  and  _118
REMARK   47  A    between atoms: _120  and  _122
REMARK   48  A    between atoms: _122  and  _123
REMARK   49  A    between atoms: _125  and  _127
REMARK   50  A    between atoms: _127  and  _128
REMARK   51  A    between atoms: _127  and  _130
REMARK   52  A    between atoms: _130  and  _131
REMARK   53  A    between atoms: _136  and  _137
REMARK   54  A    between atoms: _139  and  _141
REMARK   55  A    between atoms: _141  and  _142
REMARK   56  A    between atoms: _141  and  _144
REMARK   57  A    between atoms: _144  and  _145
REMARK   58  A    between atoms: _150  and  _152
REMARK   59  A    between atoms: _152  and  _153
REMARK   60  A    between atoms: _152  and  _155
REMARK   61  A    between atoms: _155  and  _156
REMARK   62  A    between atoms: _159  and  _161
REMARK   63  A    between atoms: _161  and  _162
REMARK   64  A    between atoms: _161  and  _164
REMARK   65  A    between atoms: _168  and  _169
REMARK   66  A    between atoms: _174  and  _176
REMARK   67  A    between atoms: _176  and  _177
REMARK   68  A    between atoms: _179  and  _181
REMARK   69  A    between atoms: _181  and  _182
REMARK   70  A    between atoms: _181  and  _184
REMARK   71  A    between atoms: _182  and  _183
REMARK   72  A    between atoms: _182  and  _188
REMARK   73  A    between atoms: _183  and  CA_229
REMARK   74  A    between atoms: _184  and  _185
REMARK   75  A    between atoms: _188  and  _190
REMARK   76  A    between atoms: _190  and  _191
REMARK   77  A    between atoms: _190  and  _193
REMARK   78  A    between atoms: _193  and  _194
REMARK   79  A    between atoms: _199  and  _200
REMARK   80  A    between atoms: _202  and  _204
REMARK   81  A    between atoms: _204  and  _205
REMARK   82  A    between atoms: _207  and  _209
REMARK   83  A    between atoms: _209  and  _210
REMARK   84  A    between atoms: _209  and  _212
REMARK   85  A    between atoms: _212  and  _213
REMARK   86  A    between atoms: _218  and  _220
REMARK   87  A    between atoms: _220  and  _221
REMARK   88  A    between atoms: _220  and  _223
REMARK   89  A    between atoms: _223  and  _224
REMARK                            x       y       z     vdW  Elec       q    Type
REMARK                         _______ _______ _______ _____ _____    ______ ____
ROOT
ATOM      1  C   CYS A   1      -3.036 -12.340 -42.735  0.00  0.00    +0.239 C 
ATOM      2  N   GLY A   2      -2.009 -12.761 -42.003  0.00  0.00    -0.297 N 
ATOM      3  H   GLY A   2      -1.978 -13.753 -41.692  0.00  0.00    +0.150 HD
ATOM      4  O   CYS A   1      -3.138 -11.185 -43.141  0.00  0.00    -0.274 OA
ENDROOT
BRANCH   1   5
ATOM      5  CA  CYS A   1      -4.128 -13.363 -43.042  0.00  0.00    +0.156 C 
BRANCH   5   6
ATOM      6  N   CYS A   1      -5.424 -12.790 -42.719  0.00  0.00    -0.237 NA
ATOM      7  H   CYS A   1      -6.129 -12.671 -43.474  0.00  0.00    +0.142 HD
ENDBRANCH   5   6
BRANCH   5   8
ATOM      8  CB  CYS A   1      -4.086 -13.784 -44.514  0.00  0.00    +0.095 C 
ATOM      9  SG  CYS A   1      -2.551 -14.562 -45.034  0.00  0.00    -0.080 S 
ENDBRANCH   5   8
ENDBRANCH   1   5
BRANCH   2  10
ATOM     10  CA  GLY A   2      -0.929 -11.864 -41.629  0.00  0.00    +0.163 C 
BRANCH  10  11
ATOM     11  C   GLY A   2      -1.136 -11.174 -40.293  0.00  0.00    +0.229 C 
ATOM     12  O   GLY A   2      -0.338 -10.320 -39.895  0.00  0.00    -0.286 OA
ENDBRANCH  10  11
ENDBRANCH   2  10
TORSDOF 5
REMARK  Name = ../refined-set-2016/5d21/5d21_pocket.pdb
REMARK  89 active torsions:
REMARK  status: ('A' for Active; 'I' for Inactive)
REMARK    1  A    between atoms: _1  and  _3
REMARK    2  A    between atoms: _3  and  _4
REMARK    3  A    between atoms: _3  and  _6
REMARK    4  A    between atoms: _6  and  _7
REMARK    5  A    between atoms: _9  and  _11
REMARK    6  A    between atoms: _11  and  _12
REMARK    7  A    between atoms: _11  and  _14
REMARK    8  A    between atoms: _12  and  _13
REMARK    9  A    between atoms: _12  and  _23
REMARK   10  A    between atoms: _13  and  CA_229
REMARK   11  A    between atoms: _14  and  _15
REMARK   12  A    between atoms: _20  and  _21
REMARK   13  A    between atoms: _23  and  _25
REMARK   14  A    between atoms: _25  and  _26
REMARK   15  A    between atoms: _29  and  _30
REMARK   16  A    between atoms: _35  and  _37
REMARK   17  A    between atoms: _37  and  _38
REMARK   18  A    between atoms: _37  and  _40
REMARK   19  A    between atoms: _40  and  _41
REMARK   20  A    between atoms: _51  and  _53
REMARK   21  A    between atoms: _53  and  _54
REMARK   22  A    between atoms: _53  and  _56
REMARK   23  A    between atoms: _56  and  _57
REMARK   24  A    between atoms: _60  and  _62
REMARK   25  A    between atoms: _62  and  _63
REMARK   26  A    between atoms: _62  and  _65
REMARK   27  A    between atoms: _65  and  _66
REMARK   28  A    between atoms: _72  and  _73
REMARK   29  A    between atoms: _78  and  _80
REMARK   30  A    between atoms: _80  and  _81
REMARK   31  A    between atoms: _80  and  _83
REMARK   32  A    between atoms: _83  and  _84
REMARK   33  A    between atoms: _87  and  _89
REMARK   34  A    between atoms: _89  and  _90
REMARK   35  A    between atoms: _89  and  _92
REMARK   36  A    between atoms: _92  and  _93
REMARK   37  A    between atoms: _93  and  _94
REMARK   38  A    between atoms: _99  and  _101
REMARK   39  A    between atoms: _101  and  _102
REMARK   40  A    between atoms: _104  and  _106
REMARK   41  A    between atoms: _106  and  _107
REMARK   42  A    between atoms: _106  and  _109
REMARK   43  A    between atoms: _109  and  _110
REMARK   44  A    between atoms: _113  and  _115
REMARK   45  A    between atoms: _115  and  _116
REMARK   46  A    between atoms: _115  and  _118
REMARK   47  A    between atoms: _120  and  _122
REMARK   48  A    between atoms: _122  and  _123
REMARK   49  A    between atoms: _125  and  _127
REMARK   50  A    between atoms: _127  and  _128
REMARK   51  A    between atoms: _127  and  _130
REMARK   52  A    between atoms: _130  and  _131
REMARK   53  A    between atoms: _136  and  _137
REMARK   54  A    between atoms: _139  and  _141
REMARK   55  A    between atoms: _141  and  _142
REMARK   56  A    between atoms: _141  and  _144
REMARK   57  A    between atoms: _144  and  _145
REMARK   58  A    between atoms: _150  and  _152
REMARK   59  A    between atoms: _152  and  _153
REMARK   60  A    between atoms: _152  and  _155
REMARK   61  A    between atoms: _155  and  _156
REMARK   62  A    between atoms: _159  and  _161
REMARK   63  A    between atoms: _161  and  _162
REMARK   64  A    between atoms: _161  and  _164
REMARK   65  A    between atoms: _168  and  _169
REMARK   66  A    between atoms: _174  and  _176
REMARK   67  A    between atoms: _176  and  _177
REMARK   68  A    between atoms: _179  and  _181
REMARK   69  A    between atoms: _181  and  _182
REMARK   70  A    between atoms: _181  and  _184
REMARK   71  A    between atoms: _182  and  _183
REMARK   72  A    between atoms: _182  and  _188
REMARK   73  A    between atoms: _183  and  CA_229
REMARK   74  A    between atoms: _184  and  _185
REMARK   75  A    between atoms: _188  and  _190
REMARK   76  A    between atoms: _190  and  _191
REMARK   77  A    between atoms: _190  and  _193
REMARK   78  A    between atoms: _193  and  _194
REMARK   79  A    between atoms: _199  and  _200
REMARK   80  A    between atoms: _202  and  _204
REMARK   81  A    between atoms: _204  and  _205
REMARK   82  A    between atoms: _207  and  _209
REMARK   83  A    between atoms: _209  and  _210
REMARK   84  A    between atoms: _209  and  _212
REMARK   85  A    between atoms: _212  and  _213
REMARK   86  A    between atoms: _218  and  _220
REMARK   87  A    between atoms: _220  and  _221
REMARK   88  A    between atoms: _220  and  _223
REMARK   89  A    between atoms: _223  and  _224
REMARK                            x       y       z     vdW  Elec       q    Type
REMARK                         _______ _______ _______ _____ _____    ______ ____
ROOT
ATOM      1  O   HOH     1      -7.231 -12.071 -44.708  0.00  0.00    +0.000 OA
ENDROOT
TORSDOF 0
REMARK  Name = ../refined-set-2016/5d21/5d21_pocket.pdb
REMARK  89 active torsions:
REMARK  status: ('A' for Active; 'I' for Inactive)
REMARK    1  A    between atoms: _1  and  _3
REMARK    2  A    between atoms: _3  and  _4
REMARK    3  A    between atoms: _3  and  _6
REMARK    4  A    between atoms: _6  and  _7
REMARK    5  A    between atoms: _9  and  _11
REMARK    6  A    between atoms: _11  and  _12
REMARK    7  A    between atoms: _11  and  _14
REMARK    8  A    between atoms: _12  and  _13
REMARK    9  A    between atoms: _12  and  _23
REMARK   10  A    between atoms: _13  and  CA_229
REMARK   11  A    between atoms: _14  and  _15
REMARK   12  A    between atoms: _20  and  _21
REMARK   13  A    between atoms: _23  and  _25
REMARK   14  A    between atoms: _25  and  _26
REMARK   15  A    between atoms: _29  and  _30
REMARK   16  A    between atoms: _35  and  _37
REMARK   17  A    between atoms: _37  and  _38
REMARK   18  A    between atoms: _37  and  _40
REMARK   19  A    between atoms: _40  and  _41
REMARK   20  A    between atoms: _51  and  _53
REMARK   21  A    between atoms: _53  and  _54
REMARK   22  A    between atoms: _53  and  _56
REMARK   23  A    between atoms: _56  and  _57
REMARK   24  A    between atoms: _60  and  _62
REMARK   25  A    between atoms: _62  and  _63
REMARK   26  A    between atoms: _62  and  _65
REMARK   27  A    between atoms: _65  and  _66
REMARK   28  A    between atoms: _72  and  _73
REMARK   29  A    between atoms: _78  and  _80
REMARK   30  A    between atoms: _80  and  _81
REMARK   31  A    between atoms: _80  and  _83
REMARK   32  A    between atoms: _83  and  _84
REMARK   33  A    between atoms: _87  and  _89
REMARK   34  A    between atoms: _89  and  _90
REMARK   35  A    between atoms: _89  and  _92
REMARK   36  A    between atoms: _92  and  _93
REMARK   37  A    between atoms: _93  and  _94
REMARK   38  A    between atoms: _99  and  _101
REMARK   39  A    between atoms: _101  and  _102
REMARK   40  A    between atoms: _104  and  _106
REMARK   41  A    between atoms: _106  and  _107
REMARK   42  A    between atoms: _106  and  _109
REMARK   43  A    between atoms: _109  and  _110
REMARK   44  A    between atoms: _113  and  _115
REMARK   45  A    between atoms: _115  and  _116
REMARK   46  A    between atoms: _115  and  _118
REMARK   47  A    between atoms: _120  and  _122
REMARK   48  A    between atoms: _122  and  _123
REMARK   49  A    between atoms: _125  and  _127
REMARK   50  A    between atoms: _127  and  _128
REMARK   51  A    between atoms: _127  and  _130
REMARK   52  A    between atoms: _130  and  _131
REMARK   53  A    between atoms: _136  and  _137
REMARK   54  A    between atoms: _139  and  _141
REMARK   55  A    between atoms: _141  and  _142
REMARK   56  A    between atoms: _141  and  _144
REMARK   57  A    between atoms: _144  and  _145
REMARK   58  A    between atoms: _150  and  _152
REMARK   59  A    between atoms: _152  and  _153
REMARK   60  A    between atoms: _152  and  _155
REMARK   61  A    between atoms: _155  and  _156
REMARK   62  A    between atoms: _159  and  _161
REMARK   63  A    between atoms: _161  and  _162
REMARK   64  A    between atoms: _161  and  _164
REMARK   65  A    between atoms: _168  and  _169
REMARK   66  A    between atoms: _174  and  _176
REMARK   67  A    between atoms: _176  and  _177
REMARK   68  A    between atoms: _179  and  _181
REMARK   69  A    between atoms: _181  and  _182
REMARK   70  A    between atoms: _181  and  _184
REMARK   71  A    between atoms: _182  and  _183
REMARK   72  A    between atoms: _182  and  _188
REMARK   73  A    between atoms: _183  and  CA_229
REMARK   74  A    between atoms: _184  and  _185
REMARK   75  A    between atoms: _188  and  _190
REMARK   76  A    between atoms: _190  and  _191
REMARK   77  A    between atoms: _190  and  _193
REMARK   78  A    between atoms: _193  and  _194
REMARK   79  A    between atoms: _199  and  _200
REMARK   80  A    between atoms: _202  and  _204
REMARK   81  A    between atoms: _204  and  _205
REMARK   82  A    between atoms: _207  and  _209
REMARK   83  A    between atoms: _209  and  _210
REMARK   84  A    between atoms: _209  and  _212
REMARK   85  A    between atoms: _212  and  _213
REMARK   86  A    between atoms: _218  and  _220
REMARK   87  A    between atoms: _220  and  _221
REMARK   88  A    between atoms: _220  and  _223
REMARK   89  A    between atoms: _223  and  _224
REMARK                            x       y       z     vdW  Elec       q    Type
REMARK                         _______ _______ _______ _____ _____    ______ ____
ROOT
ATOM      1  O   HOH     1       2.630 -14.488 -52.122  0.00  0.00    +0.000 OA
ENDROOT
TORSDOF 0
REMARK  Name = ../refined-set-2016/5d21/5d21_pocket.pdb
REMARK  89 active torsions:
REMARK  status: ('A' for Active; 'I' for Inactive)
REMARK    1  A    between atoms: _1  and  _3
REMARK    2  A    between atoms: _3  and  _4
REMARK    3  A    between atoms: _3  and  _6
REMARK    4  A    between atoms: _6  and  _7
REMARK    5  A    between atoms: _9  and  _11
REMARK    6  A    between atoms: _11  and  _12
REMARK    7  A    between atoms: _11  and  _14
REMARK    8  A    between atoms: _12  and  _13
REMARK    9  A    between atoms: _12  and  _23
REMARK   10  A    between atoms: _13  and  CA_229
REMARK   11  A    between atoms: _14  and  _15
REMARK   12  A    between atoms: _20  and  _21
REMARK   13  A    between atoms: _23  and  _25
REMARK   14  A    between atoms: _25  and  _26
REMARK   15  A    between atoms: _29  and  _30
REMARK   16  A    between atoms: _35  and  _37
REMARK   17  A    between atoms: _37  and  _38
REMARK   18  A    between atoms: _37  and  _40
REMARK   19  A    between atoms: _40  and  _41
REMARK   20  A    between atoms: _51  and  _53
REMARK   21  A    between atoms: _53  and  _54
REMARK   22  A    between atoms: _53  and  _56
REMARK   23  A    between atoms: _56  and  _57
REMARK   24  A    between atoms: _60  and  _62
REMARK   25  A    between atoms: _62  and  _63
REMARK   26  A    between atoms: _62  and  _65
REMARK   27  A    between atoms: _65  and  _66
REMARK   28  A    between atoms: _72  and  _73
REMARK   29  A    between atoms: _78  and  _80
REMARK   30  A    between atoms: _80  and  _81
REMARK   31  A    between atoms: _80  and  _83
REMARK   32  A    between atoms: _83  and  _84
REMARK   33  A    between atoms: _87  and  _89
REMARK   34  A    between atoms: _89  and  _90
REMARK   35  A    between atoms: _89  and  _92
REMARK   36  A    between atoms: _92  and  _93
REMARK   37  A    between atoms: _93  and  _94
REMARK   38  A    between atoms: _99  and  _101
REMARK   39  A    between atoms: _101  and  _102
REMARK   40  A    between atoms: _104  and  _106
REMARK   41  A    between atoms: _106  and  _107
REMARK   42  A    between atoms: _106  and  _109
REMARK   43  A    between atoms: _109  and  _110
REMARK   44  A    between atoms: _113  and  _115
REMARK   45  A    between atoms: _115  and  _116
REMARK   46  A    between atoms: _115  and  _118
REMARK   47  A    between atoms: _120  and  _122
REMARK   48  A    between atoms: _122  and  _123
REMARK   49  A    between atoms: _125  and  _127
REMARK   50  A    between atoms: _127  and  _128
REMARK   51  A    between atoms: _127  and  _130
REMARK   52  A    between atoms: _130  and  _131
REMARK   53  A    between atoms: _136  and  _137
REMARK   54  A    between atoms: _139  and  _141
REMARK   55  A    between atoms: _141  and  _142
REMARK   56  A    between atoms: _141  and  _144
REMARK   57  A    between atoms: _144  and  _145
REMARK   58  A    between atoms: _150  and  _152
REMARK   59  A    between atoms: _152  and  _153
REMARK   60  A    between atoms: _152  and  _155
REMARK   61  A    between atoms: _155  and  _156
REMARK   62  A    between atoms: _159  and  _161
REMARK   63  A    between atoms: _161  and  _162
REMARK   64  A    between atoms: _161  and  _164
REMARK   65  A    between atoms: _168  and  _169
REMARK   66  A    between atoms: _174  and  _176
REMARK   67  A    between atoms: _176  and  _177
REMARK   68  A    between atoms: _179  and  _181
REMARK   69  A    between atoms: _181  and  _182
REMARK   70  A    between atoms: _181  and  _184
REMARK   71  A    between atoms: _182  and  _183
REMARK   72  A    between atoms: _182  and  _188
REMARK   73  A    between atoms: _183  and  CA_229
REMARK   74  A    between atoms: _184  and  _185
REMARK   75  A    between atoms: _188  and  _190
REMARK   76  A    between atoms: _190  and  _191
REMARK   77  A    between atoms: _190  and  _193
REMARK   78  A    between atoms: _193  and  _194
REMARK   79  A    between atoms: _199  and  _200
REMARK   80  A    between atoms: _202  and  _204
REMARK   81  A    between atoms: _204  and  _205
REMARK   82  A    between atoms: _207  and  _209
REMARK   83  A    between atoms: _209  and  _210
REMARK   84  A    between atoms: _209  and  _212
REMARK   85  A    between atoms: _212  and  _213
REMARK   86  A    between atoms: _218  and  _220
REMARK   87  A    between atoms: _220  and  _221
REMARK   88  A    between atoms: _220  and  _223
REMARK   89  A    between atoms: _223  and  _224
REMARK                            x       y       z     vdW  Elec       q    Type
REMARK                         _______ _______ _______ _____ _____    ______ ____
ROOT
ATOM      1  O   HOH     1      -3.923  -8.339 -50.818  0.00  0.00    +0.000 OA
ENDROOT
TORSDOF 0
REMARK  Name = ../refined-set-2016/5d21/5d21_pocket.pdb
REMARK  89 active torsions:
REMARK  status: ('A' for Active; 'I' for Inactive)
REMARK    1  A    between atoms: _1  and  _3
REMARK    2  A    between atoms: _3  and  _4
REMARK    3  A    between atoms: _3  and  _6
REMARK    4  A    between atoms: _6  and  _7
REMARK    5  A    between atoms: _9  and  _11
REMARK    6  A    between atoms: _11  and  _12
REMARK    7  A    between atoms: _11  and  _14
REMARK    8  A    between atoms: _12  and  _13
REMARK    9  A    between atoms: _12  and  _23
REMARK   10  A    between atoms: _13  and  CA_229
REMARK   11  A    between atoms: _14  and  _15
REMARK   12  A    between atoms: _20  and  _21
REMARK   13  A    between atoms: _23  and  _25
REMARK   14  A    between atoms: _25  and  _26
REMARK   15  A    between atoms: _29  and  _30
REMARK   16  A    between atoms: _35  and  _37
REMARK   17  A    between atoms: _37  and  _38
REMARK   18  A    between atoms: _37  and  _40
REMARK   19  A    between atoms: _40  and  _41
REMARK   20  A    between atoms: _51  and  _53
REMARK   21  A    between atoms: _53  and  _54
REMARK   22  A    between atoms: _53  and  _56
REMARK   23  A    between atoms: _56  and  _57
REMARK   24  A    between atoms: _60  and  _62
REMARK   25  A    between atoms: _62  and  _63
REMARK   26  A    between atoms: _62  and  _65
REMARK   27  A    between atoms: _65  and  _66
REMARK   28  A    between atoms: _72  and  _73
REMARK   29  A    between atoms: _78  and  _80
REMARK   30  A    between atoms: _80  and  _81
REMARK   31  A    between atoms: _80  and  _83
REMARK   32  A    between atoms: _83  and  _84
REMARK   33  A    between atoms: _87  and  _89
REMARK   34  A    between atoms: _89  and  _90
REMARK   35  A    between atoms: _89  and  _92
REMARK   36  A    between atoms: _92  and  _93
REMARK   37  A    between atoms: _93  and  _94
REMARK   38  A    between atoms: _99  and  _101
REMARK   39  A    between atoms: _101  and  _102
REMARK   40  A    between atoms: _104  and  _106
REMARK   41  A    between atoms: _106  and  _107
REMARK   42  A    between atoms: _106  and  _109
REMARK   43  A    between atoms: _109  and  _110
REMARK   44  A    between atoms: _113  and  _115
REMARK   45  A    between atoms: _115  and  _116
REMARK   46  A    between atoms: _115  and  _118
REMARK   47  A    between atoms: _120  and  _122
REMARK   48  A    between atoms: _122  and  _123
REMARK   49  A    between atoms: _125  and  _127
REMARK   50  A    between atoms: _127  and  _128
REMARK   51  A    between atoms: _127  and  _130
REMARK   52  A    between atoms: _130  and  _131
REMARK   53  A    between atoms: _136  and  _137
REMARK   54  A    between atoms: _139  and  _141
REMARK   55  A    between atoms: _141  and  _142
REMARK   56  A    between atoms: _141  and  _144
REMARK   57  A    between atoms: _144  and  _145
REMARK   58  A    between atoms: _150  and  _152
REMARK   59  A    between atoms: _152  and  _153
REMARK   60  A    between atoms: _152  and  _155
REMARK   61  A    between atoms: _155  and  _156
REMARK   62  A    between atoms: _159  and  _161
REMARK   63  A    between atoms: _161  and  _162
REMARK   64  A    between atoms: _161  and  _164
REMARK   65  A    between atoms: _168  and  _169
REMARK   66  A    between atoms: _174  and  _176
REMARK   67  A    between atoms: _176  and  _177
REMARK   68  A    between atoms: _179  and  _181
REMARK   69  A    between atoms: _181  and  _182
REMARK   70  A    between atoms: _181  and  _184
REMARK   71  A    between atoms: _182  and  _183
REMARK   72  A    between atoms: _182  and  _188
REMARK   73  A    between atoms: _183  and  CA_229
REMARK   74  A    between atoms: _184  and  _185
REMARK   75  A    between atoms: _188  and  _190
REMARK   76  A    between atoms: _190  and  _191
REMARK   77  A    between atoms: _190  and  _193
REMARK   78  A    between atoms: _193  and  _194
REMARK   79  A    between atoms: _199  and  _200
REMARK   80  A    between atoms: _202  and  _204
REMARK   81  A    between atoms: _204  and  _205
REMARK   82  A    between atoms: _207  and  _209
REMARK   83  A    between atoms: _209  and  _210
REMARK   84  A    between atoms: _209  and  _212
REMARK   85  A    between atoms: _212  and  _213
REMARK   86  A    between atoms: _218  and  _220
REMARK   87  A    between atoms: _220  and  _221
REMARK   88  A    between atoms: _220  and  _223
REMARK   89  A    between atoms: _223  and  _224
REMARK                            x       y       z     vdW  Elec       q    Type
REMARK                         _______ _______ _______ _____ _____    ______ ____
ROOT
ATOM      1  O   HOH     1     -10.290 -19.222 -49.879  0.00  0.00    +0.000 OA
ENDROOT
TORSDOF 0
REMARK  Name = ../refined-set-2016/5d21/5d21_pocket.pdb
REMARK  89 active torsions:
REMARK  status: ('A' for Active; 'I' for Inactive)
REMARK    1  A    between atoms: _1  and  _3
REMARK    2  A    between atoms: _3  and  _4
REMARK    3  A    between atoms: _3  and  _6
REMARK    4  A    between atoms: _6  and  _7
REMARK    5  A    between atoms: _9  and  _11
REMARK    6  A    between atoms: _11  and  _12
REMARK    7  A    between atoms: _11  and  _14
REMARK    8  A    between atoms: _12  and  _13
REMARK    9  A    between atoms: _12  and  _23
REMARK   10  A    between atoms: _13  and  CA_229
REMARK   11  A    between atoms: _14  and  _15
REMARK   12  A    between atoms: _20  and  _21
REMARK   13  A    between atoms: _23  and  _25
REMARK   14  A    between atoms: _25  and  _26
REMARK   15  A    between atoms: _29  and  _30
REMARK   16  A    between atoms: _35  and  _37
REMARK   17  A    between atoms: _37  and  _38
REMARK   18  A    between atoms: _37  and  _40
REMARK   19  A    between atoms: _40  and  _41
REMARK   20  A    between atoms: _51  and  _53
REMARK   21  A    between atoms: _53  and  _54
REMARK   22  A    between atoms: _53  and  _56
REMARK   23  A    between atoms: _56  and  _57
REMARK   24  A    between atoms: _60  and  _62
REMARK   25  A    between atoms: _62  and  _63
REMARK   26  A    between atoms: _62  and  _65
REMARK   27  A    between atoms: _65  and  _66
REMARK   28  A    between atoms: _72  and  _73
REMARK   29  A    between atoms: _78  and  _80
REMARK   30  A    between atoms: _80  and  _81
REMARK   31  A    between atoms: _80  and  _83
REMARK   32  A    between atoms: _83  and  _84
REMARK   33  A    between atoms: _87  and  _89
REMARK   34  A    between atoms: _89  and  _90
REMARK   35  A    between atoms: _89  and  _92
REMARK   36  A    between atoms: _92  and  _93
REMARK   37  A    between atoms: _93  and  _94
REMARK   38  A    between atoms: _99  and  _101
REMARK   39  A    between atoms: _101  and  _102
REMARK   40  A    between atoms: _104  and  _106
REMARK   41  A    between atoms: _106  and  _107
REMARK   42  A    between atoms: _106  and  _109
REMARK   43  A    between atoms: _109  and  _110
REMARK   44  A    between atoms: _113  and  _115
REMARK   45  A    between atoms: _115  and  _116
REMARK   46  A    between atoms: _115  and  _118
REMARK   47  A    between atoms: _120  and  _122
REMARK   48  A    between atoms: _122  and  _123
REMARK   49  A    between atoms: _125  and  _127
REMARK   50  A    between atoms: _127  and  _128
REMARK   51  A    between atoms: _127  and  _130
REMARK   52  A    between atoms: _130  and  _131
REMARK   53  A    between atoms: _136  and  _137
REMARK   54  A    between atoms: _139  and  _141
REMARK   55  A    between atoms: _141  and  _142
REMARK   56  A    between atoms: _141  and  _144
REMARK   57  A    between atoms: _144  and  _145
REMARK   58  A    between atoms: _150  and  _152
REMARK   59  A    between atoms: _152  and  _153
REMARK   60  A    between atoms: _152  and  _155
REMARK   61  A    between atoms: _155  and  _156
REMARK   62  A    between atoms: _159  and  _161
REMARK   63  A    between atoms: _161  and  _162
REMARK   64  A    between atoms: _161  and  _164
REMARK   65  A    between atoms: _168  and  _169
REMARK   66  A    between atoms: _174  and  _176
REMARK   67  A    between atoms: _176  and  _177
REMARK   68  A    between atoms: _179  and  _181
REMARK   69  A    between atoms: _181  and  _182
REMARK   70  A    between atoms: _181  and  _184
REMARK   71  A    between atoms: _182  and  _183
REMARK   72  A    between atoms: _182  and  _188
REMARK   73  A    between atoms: _183  and  CA_229
REMARK   74  A    between atoms: _184  and  _185
REMARK   75  A    between atoms: _188  and  _190
REMARK   76  A    between atoms: _190  and  _191
REMARK   77  A    between atoms: _190  and  _193
REMARK   78  A    between atoms: _193  and  _194
REMARK   79  A    between atoms: _199  and  _200
REMARK   80  A    between atoms: _202  and  _204
REMARK   81  A    between atoms: _204  and  _205
REMARK   82  A    between atoms: _207  and  _209
REMARK   83  A    between atoms: _209  and  _210
REMARK   84  A    between atoms: _209  and  _212
REMARK   85  A    between atoms: _212  and  _213
REMARK   86  A    between atoms: _218  and  _220
REMARK   87  A    between atoms: _220  and  _221
REMARK   88  A    between atoms: _220  and  _223
REMARK   89  A    between atoms: _223  and  _224
REMARK                            x       y       z     vdW  Elec       q    Type
REMARK                         _______ _______ _______ _____ _____    ______ ____
ROOT
ATOM      1  O   HOH     1       1.400 -18.433 -53.309  0.00  0.00    +0.000 OA
ENDROOT
TORSDOF 0
REMARK  Name = ../refined-set-2016/5d21/5d21_pocket.pdb
REMARK  89 active torsions:
REMARK  status: ('A' for Active; 'I' for Inactive)
REMARK    1  A    between atoms: _1  and  _3
REMARK    2  A    between atoms: _3  and  _4
REMARK    3  A    between atoms: _3  and  _6
REMARK    4  A    between atoms: _6  and  _7
REMARK    5  A    between atoms: _9  and  _11
REMARK    6  A    between atoms: _11  and  _12
REMARK    7  A    between atoms: _11  and  _14
REMARK    8  A    between atoms: _12  and  _13
REMARK    9  A    between atoms: _12  and  _23
REMARK   10  A    between atoms: _13  and  CA_229
REMARK   11  A    between atoms: _14  and  _15
REMARK   12  A    between atoms: _20  and  _21
REMARK   13  A    between atoms: _23  and  _25
REMARK   14  A    between atoms: _25  and  _26
REMARK   15  A    between atoms: _29  and  _30
REMARK   16  A    between atoms: _35  and  _37
REMARK   17  A    between atoms: _37  and  _38
REMARK   18  A    between atoms: _37  and  _40
REMARK   19  A    between atoms: _40  and  _41
REMARK   20  A    between atoms: _51  and  _53
REMARK   21  A    between atoms: _53  and  _54
REMARK   22  A    between atoms: _53  and  _56
REMARK   23  A    between atoms: _56  and  _57
REMARK   24  A    between atoms: _60  and  _62
REMARK   25  A    between atoms: _62  and  _63
REMARK   26  A    between atoms: _62  and  _65
REMARK   27  A    between atoms: _65  and  _66
REMARK   28  A    between atoms: _72  and  _73
REMARK   29  A    between atoms: _78  and  _80
REMARK   30  A    between atoms: _80  and  _81
REMARK   31  A    between atoms: _80  and  _83
REMARK   32  A    between atoms: _83  and  _84
REMARK   33  A    between atoms: _87  and  _89
REMARK   34  A    between atoms: _89  and  _90
REMARK   35  A    between atoms: _89  and  _92
REMARK   36  A    between atoms: _92  and  _93
REMARK   37  A    between atoms: _93  and  _94
REMARK   38  A    between atoms: _99  and  _101
REMARK   39  A    between atoms: _101  and  _102
REMARK   40  A    between atoms: _104  and  _106
REMARK   41  A    between atoms: _106  and  _107
REMARK   42  A    between atoms: _106  and  _109
REMARK   43  A    between atoms: _109  and  _110
REMARK   44  A    between atoms: _113  and  _115
REMARK   45  A    between atoms: _115  and  _116
REMARK   46  A    between atoms: _115  and  _118
REMARK   47  A    between atoms: _120  and  _122
REMARK   48  A    between atoms: _122  and  _123
REMARK   49  A    between atoms: _125  and  _127
REMARK   50  A    between atoms: _127  and  _128
REMARK   51  A    between atoms: _127  and  _130
REMARK   52  A    between atoms: _130  and  _131
REMARK   53  A    between atoms: _136  and  _137
REMARK   54  A    between atoms: _139  and  _141
REMARK   55  A    between atoms: _141  and  _142
REMARK   56  A    between atoms: _141  and  _144
REMARK   57  A    between atoms: _144  and  _145
REMARK   58  A    between atoms: _150  and  _152
REMARK   59  A    between atoms: _152  and  _153
REMARK   60  A    between atoms: _152  and  _155
REMARK   61  A    between atoms: _155  and  _156
REMARK   62  A    between atoms: _159  and  _161
REMARK   63  A    between atoms: _161  and  _162
REMARK   64  A    between atoms: _161  and  _164
REMARK   65  A    between atoms: _168  and  _169
REMARK   66  A    between atoms: _174  and  _176
REMARK   67  A    between atoms: _176  and  _177
REMARK   68  A    between atoms: _179  and  _181
REMARK   69  A    between atoms: _181  and  _182
REMARK   70  A    between atoms: _181  and  _184
REMARK   71  A    between atoms: _182  and  _183
REMARK   72  A    between atoms: _182  and  _188
REMARK   73  A    between atoms: _183  and  CA_229
REMARK   74  A    between atoms: _184  and  _185
REMARK   75  A    between atoms: _188  and  _190
REMARK   76  A    between atoms: _190  and  _191
REMARK   77  A    between atoms: _190  and  _193
REMARK   78  A    between atoms: _193  and  _194
REMARK   79  A    between atoms: _199  and  _200
REMARK   80  A    between atoms: _202  and  _204
REMARK   81  A    between atoms: _204  and  _205
REMARK   82  A    between atoms: _207  and  _209
REMARK   83  A    between atoms: _209  and  _210
REMARK   84  A    between atoms: _209  and  _212
REMARK   85  A    between atoms: _212  and  _213
REMARK   86  A    between atoms: _218  and  _220
REMARK   87  A    between atoms: _220  and  _221
REMARK   88  A    between atoms: _220  and  _223
REMARK   89  A    between atoms: _223  and  _224
REMARK                            x       y       z     vdW  Elec       q    Type
REMARK                         _______ _______ _______ _____ _____    ______ ____
ROOT
ATOM      1  O   HOH     1       0.522  -6.711 -52.116  0.00  0.00    +0.000 OA
ENDROOT
TORSDOF 0
REMARK  Name = ../refined-set-2016/5d21/5d21_pocket.pdb
REMARK  89 active torsions:
REMARK  status: ('A' for Active; 'I' for Inactive)
REMARK    1  A    between atoms: _1  and  _3
REMARK    2  A    between atoms: _3  and  _4
REMARK    3  A    between atoms: _3  and  _6
REMARK    4  A    between atoms: _6  and  _7
REMARK    5  A    between atoms: _9  and  _11
REMARK    6  A    between atoms: _11  and  _12
REMARK    7  A    between atoms: _11  and  _14
REMARK    8  A    between atoms: _12  and  _13
REMARK    9  A    between atoms: _12  and  _23
REMARK   10  A    between atoms: _13  and  CA_229
REMARK   11  A    between atoms: _14  and  _15
REMARK   12  A    between atoms: _20  and  _21
REMARK   13  A    between atoms: _23  and  _25
REMARK   14  A    between atoms: _25  and  _26
REMARK   15  A    between atoms: _29  and  _30
REMARK   16  A    between atoms: _35  and  _37
REMARK   17  A    between atoms: _37  and  _38
REMARK   18  A    between atoms: _37  and  _40
REMARK   19  A    between atoms: _40  and  _41
REMARK   20  A    between atoms: _51  and  _53
REMARK   21  A    between atoms: _53  and  _54
REMARK   22  A    between atoms: _53  and  _56
REMARK   23  A    between atoms: _56  and  _57
REMARK   24  A    between atoms: _60  and  _62
REMARK   25  A    between atoms: _62  and  _63
REMARK   26  A    between atoms: _62  and  _65
REMARK   27  A    between atoms: _65  and  _66
REMARK   28  A    between atoms: _72  and  _73
REMARK   29  A    between atoms: _78  and  _80
REMARK   30  A    between atoms: _80  and  _81
REMARK   31  A    between atoms: _80  and  _83
REMARK   32  A    between atoms: _83  and  _84
REMARK   33  A    between atoms: _87  and  _89
REMARK   34  A    between atoms: _89  and  _90
REMARK   35  A    between atoms: _89  and  _92
REMARK   36  A    between atoms: _92  and  _93
REMARK   37  A    between atoms: _93  and  _94
REMARK   38  A    between atoms: _99  and  _101
REMARK   39  A    between atoms: _101  and  _102
REMARK   40  A    between atoms: _104  and  _106
REMARK   41  A    between atoms: _106  and  _107
REMARK   42  A    between atoms: _106  and  _109
REMARK   43  A    between atoms: _109  and  _110
REMARK   44  A    between atoms: _113  and  _115
REMARK   45  A    between atoms: _115  and  _116
REMARK   46  A    between atoms: _115  and  _118
REMARK   47  A    between atoms: _120  and  _122
REMARK   48  A    between atoms: _122  and  _123
REMARK   49  A    between atoms: _125  and  _127
REMARK   50  A    between atoms: _127  and  _128
REMARK   51  A    between atoms: _127  and  _130
REMARK   52  A    between atoms: _130  and  _131
REMARK   53  A    between atoms: _136  and  _137
REMARK   54  A    between atoms: _139  and  _141
REMARK   55  A    between atoms: _141  and  _142
REMARK   56  A    between atoms: _141  and  _144
REMARK   57  A    between atoms: _144  and  _145
REMARK   58  A    between atoms: _150  and  _152
REMARK   59  A    between atoms: _152  and  _153
REMARK   60  A    between atoms: _152  and  _155
REMARK   61  A    between atoms: _155  and  _156
REMARK   62  A    between atoms: _159  and  _161
REMARK   63  A    between atoms: _161  and  _162
REMARK   64  A    between atoms: _161  and  _164
REMARK   65  A    between atoms: _168  and  _169
REMARK   66  A    between atoms: _174  and  _176
REMARK   67  A    between atoms: _176  and  _177
REMARK   68  A    between atoms: _179  and  _181
REMARK   69  A    between atoms: _181  and  _182
REMARK   70  A    between atoms: _181  and  _184
REMARK   71  A    between atoms: _182  and  _183
REMARK   72  A    between atoms: _182  and  _188
REMARK   73  A    between atoms: _183  and  CA_229
REMARK   74  A    between atoms: _184  and  _185
REMARK   75  A    between atoms: _188  and  _190
REMARK   76  A    between atoms: _190  and  _191
REMARK   77  A    between atoms: _190  and  _193
REMARK   78  A    between atoms: _193  and  _194
REMARK   79  A    between atoms: _199  and  _200
REMARK   80  A    between atoms: _202  and  _204
REMARK   81  A    between atoms: _204  and  _205
REMARK   82  A    between atoms: _207  and  _209
REMARK   83  A    between atoms: _209  and  _210
REMARK   84  A    between atoms: _209  and  _212
REMARK   85  A    between atoms: _212  and  _213
REMARK   86  A    between atoms: _218  and  _220
REMARK   87  A    between atoms: _220  and  _221
REMARK   88  A    between atoms: _220  and  _223
REMARK   89  A    between atoms: _223  and  _224
REMARK                            x       y       z     vdW  Elec       q    Type
REMARK                         _______ _______ _______ _____ _____    ______ ____
ROOT
ATOM      1  O   HOH     1       3.345 -20.736 -50.227  0.00  0.00    +0.000 OA
ENDROOT
TORSDOF 0
REMARK  Name = ../refined-set-2016/5d21/5d21_pocket.pdb
REMARK  89 active torsions:
REMARK  status: ('A' for Active; 'I' for Inactive)
REMARK    1  A    between atoms: _1  and  _3
REMARK    2  A    between atoms: _3  and  _4
REMARK    3  A    between atoms: _3  and  _6
REMARK    4  A    between atoms: _6  and  _7
REMARK    5  A    between atoms: _9  and  _11
REMARK    6  A    between atoms: _11  and  _12
REMARK    7  A    between atoms: _11  and  _14
REMARK    8  A    between atoms: _12  and  _13
REMARK    9  A    between atoms: _12  and  _23
REMARK   10  A    between atoms: _13  and  CA_229
REMARK   11  A    between atoms: _14  and  _15
REMARK   12  A    between atoms: _20  and  _21
REMARK   13  A    between atoms: _23  and  _25
REMARK   14  A    between atoms: _25  and  _26
REMARK   15  A    between atoms: _29  and  _30
REMARK   16  A    between atoms: _35  and  _37
REMARK   17  A    between atoms: _37  and  _38
REMARK   18  A    between atoms: _37  and  _40
REMARK   19  A    between atoms: _40  and  _41
REMARK   20  A    between atoms: _51  and  _53
REMARK   21  A    between atoms: _53  and  _54
REMARK   22  A    between atoms: _53  and  _56
REMARK   23  A    between atoms: _56  and  _57
REMARK   24  A    between atoms: _60  and  _62
REMARK   25  A    between atoms: _62  and  _63
REMARK   26  A    between atoms: _62  and  _65
REMARK   27  A    between atoms: _65  and  _66
REMARK   28  A    between atoms: _72  and  _73
REMARK   29  A    between atoms: _78  and  _80
REMARK   30  A    between atoms: _80  and  _81
REMARK   31  A    between atoms: _80  and  _83
REMARK   32  A    between atoms: _83  and  _84
REMARK   33  A    between atoms: _87  and  _89
REMARK   34  A    between atoms: _89  and  _90
REMARK   35  A    between atoms: _89  and  _92
REMARK   36  A    between atoms: _92  and  _93
REMARK   37  A    between atoms: _93  and  _94
REMARK   38  A    between atoms: _99  and  _101
REMARK   39  A    between atoms: _101  and  _102
REMARK   40  A    between atoms: _104  and  _106
REMARK   41  A    between atoms: _106  and  _107
REMARK   42  A    between atoms: _106  and  _109
REMARK   43  A    between atoms: _109  and  _110
REMARK   44  A    between atoms: _113  and  _115
REMARK   45  A    between atoms: _115  and  _116
REMARK   46  A    between atoms: _115  and  _118
REMARK   47  A    between atoms: _120  and  _122
REMARK   48  A    between atoms: _122  and  _123
REMARK   49  A    between atoms: _125  and  _127
REMARK   50  A    between atoms: _127  and  _128
REMARK   51  A    between atoms: _127  and  _130
REMARK   52  A    between atoms: _130  and  _131
REMARK   53  A    between atoms: _136  and  _137
REMARK   54  A    between atoms: _139  and  _141
REMARK   55  A    between atoms: _141  and  _142
REMARK   56  A    between atoms: _141  and  _144
REMARK   57  A    between atoms: _144  and  _145
REMARK   58  A    between atoms: _150  and  _152
REMARK   59  A    between atoms: _152  and  _153
REMARK   60  A    between atoms: _152  and  _155
REMARK   61  A    between atoms: _155  and  _156
REMARK   62  A    between atoms: _159  and  _161
REMARK   63  A    between atoms: _161  and  _162
REMARK   64  A    between atoms: _161  and  _164
REMARK   65  A    between atoms: _168  and  _169
REMARK   66  A    between atoms: _174  and  _176
REMARK   67  A    between atoms: _176  and  _177
REMARK   68  A    between atoms: _179  and  _181
REMARK   69  A    between atoms: _181  and  _182
REMARK   70  A    between atoms: _181  and  _184
REMARK   71  A    between atoms: _182  and  _183
REMARK   72  A    between atoms: _182  and  _188
REMARK   73  A    between atoms: _183  and  CA_229
REMARK   74  A    between atoms: _184  and  _185
REMARK   75  A    between atoms: _188  and  _190
REMARK   76  A    between atoms: _190  and  _191
REMARK   77  A    between atoms: _190  and  _193
REMARK   78  A    between atoms: _193  and  _194
REMARK   79  A    between atoms: _199  and  _200
REMARK   80  A    between atoms: _202  and  _204
REMARK   81  A    between atoms: _204  and  _205
REMARK   82  A    between atoms: _207  and  _209
REMARK   83  A    between atoms: _209  and  _210
REMARK   84  A    between atoms: _209  and  _212
REMARK   85  A    between atoms: _212  and  _213
REMARK   86  A    between atoms: _218  and  _220
REMARK   87  A    between atoms: _220  and  _221
REMARK   88  A    between atoms: _220  and  _223
REMARK   89  A    between atoms: _223  and  _224
REMARK                            x       y       z     vdW  Elec       q    Type
REMARK                         _______ _______ _______ _____ _____    ______ ____
ROOT
ATOM      1  O   HOH     1       9.404 -14.420 -49.500  0.00  0.00    +0.000 OA
ENDROOT
TORSDOF 0
REMARK  Name = ../refined-set-2016/5d21/5d21_pocket.pdb
REMARK  89 active torsions:
REMARK  status: ('A' for Active; 'I' for Inactive)
REMARK    1  A    between atoms: _1  and  _3
REMARK    2  A    between atoms: _3  and  _4
REMARK    3  A    between atoms: _3  and  _6
REMARK    4  A    between atoms: _6  and  _7
REMARK    5  A    between atoms: _9  and  _11
REMARK    6  A    between atoms: _11  and  _12
REMARK    7  A    between atoms: _11  and  _14
REMARK    8  A    between atoms: _12  and  _13
REMARK    9  A    between atoms: _12  and  _23
REMARK   10  A    between atoms: _13  and  CA_229
REMARK   11  A    between atoms: _14  and  _15
REMARK   12  A    between atoms: _20  and  _21
REMARK   13  A    between atoms: _23  and  _25
REMARK   14  A    between atoms: _25  and  _26
REMARK   15  A    between atoms: _29  and  _30
REMARK   16  A    between atoms: _35  and  _37
REMARK   17  A    between atoms: _37  and  _38
REMARK   18  A    between atoms: _37  and  _40
REMARK   19  A    between atoms: _40  and  _41
REMARK   20  A    between atoms: _51  and  _53
REMARK   21  A    between atoms: _53  and  _54
REMARK   22  A    between atoms: _53  and  _56
REMARK   23  A    between atoms: _56  and  _57
REMARK   24  A    between atoms: _60  and  _62
REMARK   25  A    between atoms: _62  and  _63
REMARK   26  A    between atoms: _62  and  _65
REMARK   27  A    between atoms: _65  and  _66
REMARK   28  A    between atoms: _72  and  _73
REMARK   29  A    between atoms: _78  and  _80
REMARK   30  A    between atoms: _80  and  _81
REMARK   31  A    between atoms: _80  and  _83
REMARK   32  A    between atoms: _83  and  _84
REMARK   33  A    between atoms: _87  and  _89
REMARK   34  A    between atoms: _89  and  _90
REMARK   35  A    between atoms: _89  and  _92
REMARK   36  A    between atoms: _92  and  _93
REMARK   37  A    between atoms: _93  and  _94
REMARK   38  A    between atoms: _99  and  _101
REMARK   39  A    between atoms: _101  and  _102
REMARK   40  A    between atoms: _104  and  _106
REMARK   41  A    between atoms: _106  and  _107
REMARK   42  A    between atoms: _106  and  _109
REMARK   43  A    between atoms: _109  and  _110
REMARK   44  A    between atoms: _113  and  _115
REMARK   45  A    between atoms: _115  and  _116
REMARK   46  A    between atoms: _115  and  _118
REMARK   47  A    between atoms: _120  and  _122
REMARK   48  A    between atoms: _122  and  _123
REMARK   49  A    between atoms: _125  and  _127
REMARK   50  A    between atoms: _127  and  _128
REMARK   51  A    between atoms: _127  and  _130
REMARK   52  A    between atoms: _130  and  _131
REMARK   53  A    between atoms: _136  and  _137
REMARK   54  A    between atoms: _139  and  _141
REMARK   55  A    between atoms: _141  and  _142
REMARK   56  A    between atoms: _141  and  _144
REMARK   57  A    between atoms: _144  and  _145
REMARK   58  A    between atoms: _150  and  _152
REMARK   59  A    between atoms: _152  and  _153
REMARK   60  A    between atoms: _152  and  _155
REMARK   61  A    between atoms: _155  and  _156
REMARK   62  A    between atoms: _159  and  _161
REMARK   63  A    between atoms: _161  and  _162
REMARK   64  A    between atoms: _161  and  _164
REMARK   65  A    between atoms: _168  and  _169
REMARK   66  A    between atoms: _174  and  _176
REMARK   67  A    between atoms: _176  and  _177
REMARK   68  A    between atoms: _179  and  _181
REMARK   69  A    between atoms: _181  and  _182
REMARK   70  A    between atoms: _181  and  _184
REMARK   71  A    between atoms: _182  and  _183
REMARK   72  A    between atoms: _182  and  _188
REMARK   73  A    between atoms: _183  and  CA_229
REMARK   74  A    between atoms: _184  and  _185
REMARK   75  A    between atoms: _188  and  _190
REMARK   76  A    between atoms: _190  and  _191
REMARK   77  A    between atoms: _190  and  _193
REMARK   78  A    between atoms: _193  and  _194
REMARK   79  A    between atoms: _199  and  _200
REMARK   80  A    between atoms: _202  and  _204
REMARK   81  A    between atoms: _204  and  _205
REMARK   82  A    between atoms: _207  and  _209
REMARK   83  A    between atoms: _209  and  _210
REMARK   84  A    between atoms: _209  and  _212
REMARK   85  A    between atoms: _212  and  _213
REMARK   86  A    between atoms: _218  and  _220
REMARK   87  A    between atoms: _220  and  _221
REMARK   88  A    between atoms: _220  and  _223
REMARK   89  A    between atoms: _223  and  _224
REMARK                            x       y       z     vdW  Elec       q    Type
REMARK                         _______ _______ _______ _____ _____    ______ ____
ROOT
ATOM      1  O   HOH     1      -5.606 -17.046 -46.373  0.00  0.00    +0.000 OA
ENDROOT
TORSDOF 0
REMARK  Name = ../refined-set-2016/5d21/5d21_pocket.pdb
REMARK  89 active torsions:
REMARK  status: ('A' for Active; 'I' for Inactive)
REMARK    1  A    between atoms: _1  and  _3
REMARK    2  A    between atoms: _3  and  _4
REMARK    3  A    between atoms: _3  and  _6
REMARK    4  A    between atoms: _6  and  _7
REMARK    5  A    between atoms: _9  and  _11
REMARK    6  A    between atoms: _11  and  _12
REMARK    7  A    between atoms: _11  and  _14
REMARK    8  A    between atoms: _12  and  _13
REMARK    9  A    between atoms: _12  and  _23
REMARK   10  A    between atoms: _13  and  CA_229
REMARK   11  A    between atoms: _14  and  _15
REMARK   12  A    between atoms: _20  and  _21
REMARK   13  A    between atoms: _23  and  _25
REMARK   14  A    between atoms: _25  and  _26
REMARK   15  A    between atoms: _29  and  _30
REMARK   16  A    between atoms: _35  and  _37
REMARK   17  A    between atoms: _37  and  _38
REMARK   18  A    between atoms: _37  and  _40
REMARK   19  A    between atoms: _40  and  _41
REMARK   20  A    between atoms: _51  and  _53
REMARK   21  A    between atoms: _53  and  _54
REMARK   22  A    between atoms: _53  and  _56
REMARK   23  A    between atoms: _56  and  _57
REMARK   24  A    between atoms: _60  and  _62
REMARK   25  A    between atoms: _62  and  _63
REMARK   26  A    between atoms: _62  and  _65
REMARK   27  A    between atoms: _65  and  _66
REMARK   28  A    between atoms: _72  and  _73
REMARK   29  A    between atoms: _78  and  _80
REMARK   30  A    between atoms: _80  and  _81
REMARK   31  A    between atoms: _80  and  _83
REMARK   32  A    between atoms: _83  and  _84
REMARK   33  A    between atoms: _87  and  _89
REMARK   34  A    between atoms: _89  and  _90
REMARK   35  A    between atoms: _89  and  _92
REMARK   36  A    between atoms: _92  and  _93
REMARK   37  A    between atoms: _93  and  _94
REMARK   38  A    between atoms: _99  and  _101
REMARK   39  A    between atoms: _101  and  _102
REMARK   40  A    between atoms: _104  and  _106
REMARK   41  A    between atoms: _106  and  _107
REMARK   42  A    between atoms: _106  and  _109
REMARK   43  A    between atoms: _109  and  _110
REMARK   44  A    between atoms: _113  and  _115
REMARK   45  A    between atoms: _115  and  _116
REMARK   46  A    between atoms: _115  and  _118
REMARK   47  A    between atoms: _120  and  _122
REMARK   48  A    between atoms: _122  and  _123
REMARK   49  A    between atoms: _125  and  _127
REMARK   50  A    between atoms: _127  and  _128
REMARK   51  A    between atoms: _127  and  _130
REMARK   52  A    between atoms: _130  and  _131
REMARK   53  A    between atoms: _136  and  _137
REMARK   54  A    between atoms: _139  and  _141
REMARK   55  A    between atoms: _141  and  _142
REMARK   56  A    between atoms: _141  and  _144
REMARK   57  A    between atoms: _144  and  _145
REMARK   58  A    between atoms: _150  and  _152
REMARK   59  A    between atoms: _152  and  _153
REMARK   60  A    between atoms: _152  and  _155
REMARK   61  A    between atoms: _155  and  _156
REMARK   62  A    between atoms: _159  and  _161
REMARK   63  A    between atoms: _161  and  _162
REMARK   64  A    between atoms: _161  and  _164
REMARK   65  A    between atoms: _168  and  _169
REMARK   66  A    between atoms: _174  and  _176
REMARK   67  A    between atoms: _176  and  _177
REMARK   68  A    between atoms: _179  and  _181
REMARK   69  A    between atoms: _181  and  _182
REMARK   70  A    between atoms: _181  and  _184
REMARK   71  A    between atoms: _182  and  _183
REMARK   72  A    between atoms: _182  and  _188
REMARK   73  A    between atoms: _183  and  CA_229
REMARK   74  A    between atoms: _184  and  _185
REMARK   75  A    between atoms: _188  and  _190
REMARK   76  A    between atoms: _190  and  _191
REMARK   77  A    between atoms: _190  and  _193
REMARK   78  A    between atoms: _193  and  _194
REMARK   79  A    between atoms: _199  and  _200
REMARK   80  A    between atoms: _202  and  _204
REMARK   81  A    between atoms: _204  and  _205
REMARK   82  A    between atoms: _207  and  _209
REMARK   83  A    between atoms: _209  and  _210
REMARK   84  A    between atoms: _209  and  _212
REMARK   85  A    between atoms: _212  and  _213
REMARK   86  A    between atoms: _218  and  _220
REMARK   87  A    between atoms: _220  and  _221
REMARK   88  A    between atoms: _220  and  _223
REMARK   89  A    between atoms: _223  and  _224
REMARK                            x       y       z     vdW  Elec       q    Type
REMARK                         _______ _______ _______ _____ _____    ______ ____
ROOT
ATOM      1  O   HOH     1       7.269 -12.361 -47.627  0.00  0.00    +0.000 OA
ENDROOT
TORSDOF 0
REMARK  Name = ../refined-set-2016/5d21/5d21_pocket.pdb
REMARK  89 active torsions:
REMARK  status: ('A' for Active; 'I' for Inactive)
REMARK    1  A    between atoms: _1  and  _3
REMARK    2  A    between atoms: _3  and  _4
REMARK    3  A    between atoms: _3  and  _6
REMARK    4  A    between atoms: _6  and  _7
REMARK    5  A    between atoms: _9  and  _11
REMARK    6  A    between atoms: _11  and  _12
REMARK    7  A    between atoms: _11  and  _14
REMARK    8  A    between atoms: _12  and  _13
REMARK    9  A    between atoms: _12  and  _23
REMARK   10  A    between atoms: _13  and  CA_229
REMARK   11  A    between atoms: _14  and  _15
REMARK   12  A    between atoms: _20  and  _21
REMARK   13  A    between atoms: _23  and  _25
REMARK   14  A    between atoms: _25  and  _26
REMARK   15  A    between atoms: _29  and  _30
REMARK   16  A    between atoms: _35  and  _37
REMARK   17  A    between atoms: _37  and  _38
REMARK   18  A    between atoms: _37  and  _40
REMARK   19  A    between atoms: _40  and  _41
REMARK   20  A    between atoms: _51  and  _53
REMARK   21  A    between atoms: _53  and  _54
REMARK   22  A    between atoms: _53  and  _56
REMARK   23  A    between atoms: _56  and  _57
REMARK   24  A    between atoms: _60  and  _62
REMARK   25  A    between atoms: _62  and  _63
REMARK   26  A    between atoms: _62  and  _65
REMARK   27  A    between atoms: _65  and  _66
REMARK   28  A    between atoms: _72  and  _73
REMARK   29  A    between atoms: _78  and  _80
REMARK   30  A    between atoms: _80  and  _81
REMARK   31  A    between atoms: _80  and  _83
REMARK   32  A    between atoms: _83  and  _84
REMARK   33  A    between atoms: _87  and  _89
REMARK   34  A    between atoms: _89  and  _90
REMARK   35  A    between atoms: _89  and  _92
REMARK   36  A    between atoms: _92  and  _93
REMARK   37  A    between atoms: _93  and  _94
REMARK   38  A    between atoms: _99  and  _101
REMARK   39  A    between atoms: _101  and  _102
REMARK   40  A    between atoms: _104  and  _106
REMARK   41  A    between atoms: _106  and  _107
REMARK   42  A    between atoms: _106  and  _109
REMARK   43  A    between atoms: _109  and  _110
REMARK   44  A    between atoms: _113  and  _115
REMARK   45  A    between atoms: _115  and  _116
REMARK   46  A    between atoms: _115  and  _118
REMARK   47  A    between atoms: _120  and  _122
REMARK   48  A    between atoms: _122  and  _123
REMARK   49  A    between atoms: _125  and  _127
REMARK   50  A    between atoms: _127  and  _128
REMARK   51  A    between atoms: _127  and  _130
REMARK   52  A    between atoms: _130  and  _131
REMARK   53  A    between atoms: _136  and  _137
REMARK   54  A    between atoms: _139  and  _141
REMARK   55  A    between atoms: _141  and  _142
REMARK   56  A    between atoms: _141  and  _144
REMARK   57  A    between atoms: _144  and  _145
REMARK   58  A    between atoms: _150  and  _152
REMARK   59  A    between atoms: _152  and  _153
REMARK   60  A    between atoms: _152  and  _155
REMARK   61  A    between atoms: _155  and  _156
REMARK   62  A    between atoms: _159  and  _161
REMARK   63  A    between atoms: _161  and  _162
REMARK   64  A    between atoms: _161  and  _164
REMARK   65  A    between atoms: _168  and  _169
REMARK   66  A    between atoms: _174  and  _176
REMARK   67  A    between atoms: _176  and  _177
REMARK   68  A    between atoms: _179  and  _181
REMARK   69  A    between atoms: _181  and  _182
REMARK   70  A    between atoms: _181  and  _184
REMARK   71  A    between atoms: _182  and  _183
REMARK   72  A    between atoms: _182  and  _188
REMARK   73  A    between atoms: _183  and  CA_229
REMARK   74  A    between atoms: _184  and  _185
REMARK   75  A    between atoms: _188  and  _190
REMARK   76  A    between atoms: _190  and  _191
REMARK   77  A    between atoms: _190  and  _193
REMARK   78  A    between atoms: _193  and  _194
REMARK   79  A    between atoms: _199  and  _200
REMARK   80  A    between atoms: _202  and  _204
REMARK   81  A    between atoms: _204  and  _205
REMARK   82  A    between atoms: _207  and  _209
REMARK   83  A    between atoms: _209  and  _210
REMARK   84  A    between atoms: _209  and  _212
REMARK   85  A    between atoms: _212  and  _213
REMARK   86  A    between atoms: _218  and  _220
REMARK   87  A    between atoms: _220  and  _221
REMARK   88  A    between atoms: _220  and  _223
REMARK   89  A    between atoms: _223  and  _224
REMARK                            x       y       z     vdW  Elec       q    Type
REMARK                         _______ _______ _______ _____ _____    ______ ____
ROOT
ATOM      1  O   HOH     1      -1.786 -10.688 -51.806  0.00  0.00    +0.000 OA
ENDROOT
TORSDOF 0
REMARK  Name = ../refined-set-2016/5d21/5d21_pocket.pdb
REMARK  89 active torsions:
REMARK  status: ('A' for Active; 'I' for Inactive)
REMARK    1  A    between atoms: _1  and  _3
REMARK    2  A    between atoms: _3  and  _4
REMARK    3  A    between atoms: _3  and  _6
REMARK    4  A    between atoms: _6  and  _7
REMARK    5  A    between atoms: _9  and  _11
REMARK    6  A    between atoms: _11  and  _12
REMARK    7  A    between atoms: _11  and  _14
REMARK    8  A    between atoms: _12  and  _13
REMARK    9  A    between atoms: _12  and  _23
REMARK   10  A    between atoms: _13  and  CA_229
REMARK   11  A    between atoms: _14  and  _15
REMARK   12  A    between atoms: _20  and  _21
REMARK   13  A    between atoms: _23  and  _25
REMARK   14  A    between atoms: _25  and  _26
REMARK   15  A    between atoms: _29  and  _30
REMARK   16  A    between atoms: _35  and  _37
REMARK   17  A    between atoms: _37  and  _38
REMARK   18  A    between atoms: _37  and  _40
REMARK   19  A    between atoms: _40  and  _41
REMARK   20  A    between atoms: _51  and  _53
REMARK   21  A    between atoms: _53  and  _54
REMARK   22  A    between atoms: _53  and  _56
REMARK   23  A    between atoms: _56  and  _57
REMARK   24  A    between atoms: _60  and  _62
REMARK   25  A    between atoms: _62  and  _63
REMARK   26  A    between atoms: _62  and  _65
REMARK   27  A    between atoms: _65  and  _66
REMARK   28  A    between atoms: _72  and  _73
REMARK   29  A    between atoms: _78  and  _80
REMARK   30  A    between atoms: _80  and  _81
REMARK   31  A    between atoms: _80  and  _83
REMARK   32  A    between atoms: _83  and  _84
REMARK   33  A    between atoms: _87  and  _89
REMARK   34  A    between atoms: _89  and  _90
REMARK   35  A    between atoms: _89  and  _92
REMARK   36  A    between atoms: _92  and  _93
REMARK   37  A    between atoms: _93  and  _94
REMARK   38  A    between atoms: _99  and  _101
REMARK   39  A    between atoms: _101  and  _102
REMARK   40  A    between atoms: _104  and  _106
REMARK   41  A    between atoms: _106  and  _107
REMARK   42  A    between atoms: _106  and  _109
REMARK   43  A    between atoms: _109  and  _110
REMARK   44  A    between atoms: _113  and  _115
REMARK   45  A    between atoms: _115  and  _116
REMARK   46  A    between atoms: _115  and  _118
REMARK   47  A    between atoms: _120  and  _122
REMARK   48  A    between atoms: _122  and  _123
REMARK   49  A    between atoms: _125  and  _127
REMARK   50  A    between atoms: _127  and  _128
REMARK   51  A    between atoms: _127  and  _130
REMARK   52  A    between atoms: _130  and  _131
REMARK   53  A    between atoms: _136  and  _137
REMARK   54  A    between atoms: _139  and  _141
REMARK   55  A    between atoms: _141  and  _142
REMARK   56  A    between atoms: _141  and  _144
REMARK   57  A    between atoms: _144  and  _145
REMARK   58  A    between atoms: _150  and  _152
REMARK   59  A    between atoms: _152  and  _153
REMARK   60  A    between atoms: _152  and  _155
REMARK   61  A    between atoms: _155  and  _156
REMARK   62  A    between atoms: _159  and  _161
REMARK   63  A    between atoms: _161  and  _162
REMARK   64  A    between atoms: _161  and  _164
REMARK   65  A    between atoms: _168  and  _169
REMARK   66  A    between atoms: _174  and  _176
REMARK   67  A    between atoms: _176  and  _177
REMARK   68  A    between atoms: _179  and  _181
REMARK   69  A    between atoms: _181  and  _182
REMARK   70  A    between atoms: _181  and  _184
REMARK   71  A    between atoms: _182  and  _183
REMARK   72  A    between atoms: _182  and  _188
REMARK   73  A    between atoms: _183  and  CA_229
REMARK   74  A    between atoms: _184  and  _185
REMARK   75  A    between atoms: _188  and  _190
REMARK   76  A    between atoms: _190  and  _191
REMARK   77  A    between atoms: _190  and  _193
REMARK   78  A    between atoms: _193  and  _194
REMARK   79  A    between atoms: _199  and  _200
REMARK   80  A    between atoms: _202  and  _204
REMARK   81  A    between atoms: _204  and  _205
REMARK   82  A    between atoms: _207  and  _209
REMARK   83  A    between atoms: _209  and  _210
REMARK   84  A    between atoms: _209  and  _212
REMARK   85  A    between atoms: _212  and  _213
REMARK   86  A    between atoms: _218  and  _220
REMARK   87  A    between atoms: _220  and  _221
REMARK   88  A    between atoms: _220  and  _223
REMARK   89  A    between atoms: _223  and  _224
REMARK                            x       y       z     vdW  Elec       q    Type
REMARK                         _______ _______ _______ _____ _____    ______ ____
ROOT
ATOM      1  O   HOH     1       6.085 -23.181 -46.714  0.00  0.00    +0.000 OA
ENDROOT
TORSDOF 0
REMARK  Name = ../refined-set-2016/5d21/5d21_pocket.pdb
REMARK  89 active torsions:
REMARK  status: ('A' for Active; 'I' for Inactive)
REMARK    1  A    between atoms: _1  and  _3
REMARK    2  A    between atoms: _3  and  _4
REMARK    3  A    between atoms: _3  and  _6
REMARK    4  A    between atoms: _6  and  _7
REMARK    5  A    between atoms: _9  and  _11
REMARK    6  A    between atoms: _11  and  _12
REMARK    7  A    between atoms: _11  and  _14
REMARK    8  A    between atoms: _12  and  _13
REMARK    9  A    between atoms: _12  and  _23
REMARK   10  A    between atoms: _13  and  CA_229
REMARK   11  A    between atoms: _14  and  _15
REMARK   12  A    between atoms: _20  and  _21
REMARK   13  A    between atoms: _23  and  _25
REMARK   14  A    between atoms: _25  and  _26
REMARK   15  A    between atoms: _29  and  _30
REMARK   16  A    between atoms: _35  and  _37
REMARK   17  A    between atoms: _37  and  _38
REMARK   18  A    between atoms: _37  and  _40
REMARK   19  A    between atoms: _40  and  _41
REMARK   20  A    between atoms: _51  and  _53
REMARK   21  A    between atoms: _53  and  _54
REMARK   22  A    between atoms: _53  and  _56
REMARK   23  A    between atoms: _56  and  _57
REMARK   24  A    between atoms: _60  and  _62
REMARK   25  A    between atoms: _62  and  _63
REMARK   26  A    between atoms: _62  and  _65
REMARK   27  A    between atoms: _65  and  _66
REMARK   28  A    between atoms: _72  and  _73
REMARK   29  A    between atoms: _78  and  _80
REMARK   30  A    between atoms: _80  and  _81
REMARK   31  A    between atoms: _80  and  _83
REMARK   32  A    between atoms: _83  and  _84
REMARK   33  A    between atoms: _87  and  _89
REMARK   34  A    between atoms: _89  and  _90
REMARK   35  A    between atoms: _89  and  _92
REMARK   36  A    between atoms: _92  and  _93
REMARK   37  A    between atoms: _93  and  _94
REMARK   38  A    between atoms: _99  and  _101
REMARK   39  A    between atoms: _101  and  _102
REMARK   40  A    between atoms: _104  and  _106
REMARK   41  A    between atoms: _106  and  _107
REMARK   42  A    between atoms: _106  and  _109
REMARK   43  A    between atoms: _109  and  _110
REMARK   44  A    between atoms: _113  and  _115
REMARK   45  A    between atoms: _115  and  _116
REMARK   46  A    between atoms: _115  and  _118
REMARK   47  A    between atoms: _120  and  _122
REMARK   48  A    between atoms: _122  and  _123
REMARK   49  A    between atoms: _125  and  _127
REMARK   50  A    between atoms: _127  and  _128
REMARK   51  A    between atoms: _127  and  _130
REMARK   52  A    between atoms: _130  and  _131
REMARK   53  A    between atoms: _136  and  _137
REMARK   54  A    between atoms: _139  and  _141
REMARK   55  A    between atoms: _141  and  _142
REMARK   56  A    between atoms: _141  and  _144
REMARK   57  A    between atoms: _144  and  _145
REMARK   58  A    between atoms: _150  and  _152
REMARK   59  A    between atoms: _152  and  _153
REMARK   60  A    between atoms: _152  and  _155
REMARK   61  A    between atoms: _155  and  _156
REMARK   62  A    between atoms: _159  and  _161
REMARK   63  A    between atoms: _161  and  _162
REMARK   64  A    between atoms: _161  and  _164
REMARK   65  A    between atoms: _168  and  _169
REMARK   66  A    between atoms: _174  and  _176
REMARK   67  A    between atoms: _176  and  _177
REMARK   68  A    between atoms: _179  and  _181
REMARK   69  A    between atoms: _181  and  _182
REMARK   70  A    between atoms: _181  and  _184
REMARK   71  A    between atoms: _182  and  _183
REMARK   72  A    between atoms: _182  and  _188
REMARK   73  A    between atoms: _183  and  CA_229
REMARK   74  A    between atoms: _184  and  _185
REMARK   75  A    between atoms: _188  and  _190
REMARK   76  A    between atoms: _190  and  _191
REMARK   77  A    between atoms: _190  and  _193
REMARK   78  A    between atoms: _193  and  _194
REMARK   79  A    between atoms: _199  and  _200
REMARK   80  A    between atoms: _202  and  _204
REMARK   81  A    between atoms: _204  and  _205
REMARK   82  A    between atoms: _207  and  _209
REMARK   83  A    between atoms: _209  and  _210
REMARK   84  A    between atoms: _209  and  _212
REMARK   85  A    between atoms: _212  and  _213
REMARK   86  A    between atoms: _218  and  _220
REMARK   87  A    between atoms: _220  and  _221
REMARK   88  A    between atoms: _220  and  _223
REMARK   89  A    between atoms: _223  and  _224
REMARK                            x       y       z     vdW  Elec       q    Type
REMARK                         _______ _______ _______ _____ _____    ______ ____
ROOT
ATOM      1  O   HOH     1      -0.155 -25.827 -47.577  0.00  0.00    +0.000 OA
ENDROOT
TORSDOF 0
REMARK  Name = ../refined-set-2016/5d21/5d21_pocket.pdb
REMARK  89 active torsions:
REMARK  status: ('A' for Active; 'I' for Inactive)
REMARK    1  A    between atoms: _1  and  _3
REMARK    2  A    between atoms: _3  and  _4
REMARK    3  A    between atoms: _3  and  _6
REMARK    4  A    between atoms: _6  and  _7
REMARK    5  A    between atoms: _9  and  _11
REMARK    6  A    between atoms: _11  and  _12
REMARK    7  A    between atoms: _11  and  _14
REMARK    8  A    between atoms: _12  and  _13
REMARK    9  A    between atoms: _12  and  _23
REMARK   10  A    between atoms: _13  and  CA_229
REMARK   11  A    between atoms: _14  and  _15
REMARK   12  A    between atoms: _20  and  _21
REMARK   13  A    between atoms: _23  and  _25
REMARK   14  A    between atoms: _25  and  _26
REMARK   15  A    between atoms: _29  and  _30
REMARK   16  A    between atoms: _35  and  _37
REMARK   17  A    between atoms: _37  and  _38
REMARK   18  A    between atoms: _37  and  _40
REMARK   19  A    between atoms: _40  and  _41
REMARK   20  A    between atoms: _51  and  _53
REMARK   21  A    between atoms: _53  and  _54
REMARK   22  A    between atoms: _53  and  _56
REMARK   23  A    between atoms: _56  and  _57
REMARK   24  A    between atoms: _60  and  _62
REMARK   25  A    between atoms: _62  and  _63
REMARK   26  A    between atoms: _62  and  _65
REMARK   27  A    between atoms: _65  and  _66
REMARK   28  A    between atoms: _72  and  _73
REMARK   29  A    between atoms: _78  and  _80
REMARK   30  A    between atoms: _80  and  _81
REMARK   31  A    between atoms: _80  and  _83
REMARK   32  A    between atoms: _83  and  _84
REMARK   33  A    between atoms: _87  and  _89
REMARK   34  A    between atoms: _89  and  _90
REMARK   35  A    between atoms: _89  and  _92
REMARK   36  A    between atoms: _92  and  _93
REMARK   37  A    between atoms: _93  and  _94
REMARK   38  A    between atoms: _99  and  _101
REMARK   39  A    between atoms: _101  and  _102
REMARK   40  A    between atoms: _104  and  _106
REMARK   41  A    between atoms: _106  and  _107
REMARK   42  A    between atoms: _106  and  _109
REMARK   43  A    between atoms: _109  and  _110
REMARK   44  A    between atoms: _113  and  _115
REMARK   45  A    between atoms: _115  and  _116
REMARK   46  A    between atoms: _115  and  _118
REMARK   47  A    between atoms: _120  and  _122
REMARK   48  A    between atoms: _122  and  _123
REMARK   49  A    between atoms: _125  and  _127
REMARK   50  A    between atoms: _127  and  _128
REMARK   51  A    between atoms: _127  and  _130
REMARK   52  A    between atoms: _130  and  _131
REMARK   53  A    between atoms: _136  and  _137
REMARK   54  A    between atoms: _139  and  _141
REMARK   55  A    between atoms: _141  and  _142
REMARK   56  A    between atoms: _141  and  _144
REMARK   57  A    between atoms: _144  and  _145
REMARK   58  A    between atoms: _150  and  _152
REMARK   59  A    between atoms: _152  and  _153
REMARK   60  A    between atoms: _152  and  _155
REMARK   61  A    between atoms: _155  and  _156
REMARK   62  A    between atoms: _159  and  _161
REMARK   63  A    between atoms: _161  and  _162
REMARK   64  A    between atoms: _161  and  _164
REMARK   65  A    between atoms: _168  and  _169
REMARK   66  A    between atoms: _174  and  _176
REMARK   67  A    between atoms: _176  and  _177
REMARK   68  A    between atoms: _179  and  _181
REMARK   69  A    between atoms: _181  and  _182
REMARK   70  A    between atoms: _181  and  _184
REMARK   71  A    between atoms: _182  and  _183
REMARK   72  A    between atoms: _182  and  _188
REMARK   73  A    between atoms: _183  and  CA_229
REMARK   74  A    between atoms: _184  and  _185
REMARK   75  A    between atoms: _188  and  _190
REMARK   76  A    between atoms: _190  and  _191
REMARK   77  A    between atoms: _190  and  _193
REMARK   78  A    between atoms: _193  and  _194
REMARK   79  A    between atoms: _199  and  _200
REMARK   80  A    between atoms: _202  and  _204
REMARK   81  A    between atoms: _204  and  _205
REMARK   82  A    between atoms: _207  and  _209
REMARK   83  A    between atoms: _209  and  _210
REMARK   84  A    between atoms: _209  and  _212
REMARK   85  A    between atoms: _212  and  _213
REMARK   86  A    between atoms: _218  and  _220
REMARK   87  A    between atoms: _220  and  _221
REMARK   88  A    between atoms: _220  and  _223
REMARK   89  A    between atoms: _223  and  _224
REMARK                            x       y       z     vdW  Elec       q    Type
REMARK                         _______ _______ _______ _____ _____    ______ ____
ROOT
ATOM      1  O   HOH     1      -4.564 -22.757 -49.228  0.00  0.00    +0.000 OA
ENDROOT
TORSDOF 0
REMARK  Name = ../refined-set-2016/5d21/5d21_pocket.pdb
REMARK  89 active torsions:
REMARK  status: ('A' for Active; 'I' for Inactive)
REMARK    1  A    between atoms: _1  and  _3
REMARK    2  A    between atoms: _3  and  _4
REMARK    3  A    between atoms: _3  and  _6
REMARK    4  A    between atoms: _6  and  _7
REMARK    5  A    between atoms: _9  and  _11
REMARK    6  A    between atoms: _11  and  _12
REMARK    7  A    between atoms: _11  and  _14
REMARK    8  A    between atoms: _12  and  _13
REMARK    9  A    between atoms: _12  and  _23
REMARK   10  A    between atoms: _13  and  CA_229
REMARK   11  A    between atoms: _14  and  _15
REMARK   12  A    between atoms: _20  and  _21
REMARK   13  A    between atoms: _23  and  _25
REMARK   14  A    between atoms: _25  and  _26
REMARK   15  A    between atoms: _29  and  _30
REMARK   16  A    between atoms: _35  and  _37
REMARK   17  A    between atoms: _37  and  _38
REMARK   18  A    between atoms: _37  and  _40
REMARK   19  A    between atoms: _40  and  _41
REMARK   20  A    between atoms: _51  and  _53
REMARK   21  A    between atoms: _53  and  _54
REMARK   22  A    between atoms: _53  and  _56
REMARK   23  A    between atoms: _56  and  _57
REMARK   24  A    between atoms: _60  and  _62
REMARK   25  A    between atoms: _62  and  _63
REMARK   26  A    between atoms: _62  and  _65
REMARK   27  A    between atoms: _65  and  _66
REMARK   28  A    between atoms: _72  and  _73
REMARK   29  A    between atoms: _78  and  _80
REMARK   30  A    between atoms: _80  and  _81
REMARK   31  A    between atoms: _80  and  _83
REMARK   32  A    between atoms: _83  and  _84
REMARK   33  A    between atoms: _87  and  _89
REMARK   34  A    between atoms: _89  and  _90
REMARK   35  A    between atoms: _89  and  _92
REMARK   36  A    between atoms: _92  and  _93
REMARK   37  A    between atoms: _93  and  _94
REMARK   38  A    between atoms: _99  and  _101
REMARK   39  A    between atoms: _101  and  _102
REMARK   40  A    between atoms: _104  and  _106
REMARK   41  A    between atoms: _106  and  _107
REMARK   42  A    between atoms: _106  and  _109
REMARK   43  A    between atoms: _109  and  _110
REMARK   44  A    between atoms: _113  and  _115
REMARK   45  A    between atoms: _115  and  _116
REMARK   46  A    between atoms: _115  and  _118
REMARK   47  A    between atoms: _120  and  _122
REMARK   48  A    between atoms: _122  and  _123
REMARK   49  A    between atoms: _125  and  _127
REMARK   50  A    between atoms: _127  and  _128
REMARK   51  A    between atoms: _127  and  _130
REMARK   52  A    between atoms: _130  and  _131
REMARK   53  A    between atoms: _136  and  _137
REMARK   54  A    between atoms: _139  and  _141
REMARK   55  A    between atoms: _141  and  _142
REMARK   56  A    between atoms: _141  and  _144
REMARK   57  A    between atoms: _144  and  _145
REMARK   58  A    between atoms: _150  and  _152
REMARK   59  A    between atoms: _152  and  _153
REMARK   60  A    between atoms: _152  and  _155
REMARK   61  A    between atoms: _155  and  _156
REMARK   62  A    between atoms: _159  and  _161
REMARK   63  A    between atoms: _161  and  _162
REMARK   64  A    between atoms: _161  and  _164
REMARK   65  A    between atoms: _168  and  _169
REMARK   66  A    between atoms: _174  and  _176
REMARK   67  A    between atoms: _176  and  _177
REMARK   68  A    between atoms: _179  and  _181
REMARK   69  A    between atoms: _181  and  _182
REMARK   70  A    between atoms: _181  and  _184
REMARK   71  A    between atoms: _182  and  _183
REMARK   72  A    between atoms: _182  and  _188
REMARK   73  A    between atoms: _183  and  CA_229
REMARK   74  A    between atoms: _184  and  _185
REMARK   75  A    between atoms: _188  and  _190
REMARK   76  A    between atoms: _190  and  _191
REMARK   77  A    between atoms: _190  and  _193
REMARK   78  A    between atoms: _193  and  _194
REMARK   79  A    between atoms: _199  and  _200
REMARK   80  A    between atoms: _202  and  _204
REMARK   81  A    between atoms: _204  and  _205
REMARK   82  A    between atoms: _207  and  _209
REMARK   83  A    between atoms: _209  and  _210
REMARK   84  A    between atoms: _209  and  _212
REMARK   85  A    between atoms: _212  and  _213
REMARK   86  A    between atoms: _218  and  _220
REMARK   87  A    between atoms: _220  and  _221
REMARK   88  A    between atoms: _220  and  _223
REMARK   89  A    between atoms: _223  and  _224
REMARK                            x       y       z     vdW  Elec       q    Type
REMARK                         _______ _______ _______ _____ _____    ______ ____
ROOT
ATOM      1  O   HOH     1       2.209 -25.285 -49.348  0.00  0.00    +0.000 OA
ENDROOT
TORSDOF 0
REMARK  Name = ../refined-set-2016/5d21/5d21_pocket.pdb
REMARK  89 active torsions:
REMARK  status: ('A' for Active; 'I' for Inactive)
REMARK    1  A    between atoms: _1  and  _3
REMARK    2  A    between atoms: _3  and  _4
REMARK    3  A    between atoms: _3  and  _6
REMARK    4  A    between atoms: _6  and  _7
REMARK    5  A    between atoms: _9  and  _11
REMARK    6  A    between atoms: _11  and  _12
REMARK    7  A    between atoms: _11  and  _14
REMARK    8  A    between atoms: _12  and  _13
REMARK    9  A    between atoms: _12  and  _23
REMARK   10  A    between atoms: _13  and  CA_229
REMARK   11  A    between atoms: _14  and  _15
REMARK   12  A    between atoms: _20  and  _21
REMARK   13  A    between atoms: _23  and  _25
REMARK   14  A    between atoms: _25  and  _26
REMARK   15  A    between atoms: _29  and  _30
REMARK   16  A    between atoms: _35  and  _37
REMARK   17  A    between atoms: _37  and  _38
REMARK   18  A    between atoms: _37  and  _40
REMARK   19  A    between atoms: _40  and  _41
REMARK   20  A    between atoms: _51  and  _53
REMARK   21  A    between atoms: _53  and  _54
REMARK   22  A    between atoms: _53  and  _56
REMARK   23  A    between atoms: _56  and  _57
REMARK   24  A    between atoms: _60  and  _62
REMARK   25  A    between atoms: _62  and  _63
REMARK   26  A    between atoms: _62  and  _65
REMARK   27  A    between atoms: _65  and  _66
REMARK   28  A    between atoms: _72  and  _73
REMARK   29  A    between atoms: _78  and  _80
REMARK   30  A    between atoms: _80  and  _81
REMARK   31  A    between atoms: _80  and  _83
REMARK   32  A    between atoms: _83  and  _84
REMARK   33  A    between atoms: _87  and  _89
REMARK   34  A    between atoms: _89  and  _90
REMARK   35  A    between atoms: _89  and  _92
REMARK   36  A    between atoms: _92  and  _93
REMARK   37  A    between atoms: _93  and  _94
REMARK   38  A    between atoms: _99  and  _101
REMARK   39  A    between atoms: _101  and  _102
REMARK   40  A    between atoms: _104  and  _106
REMARK   41  A    between atoms: _106  and  _107
REMARK   42  A    between atoms: _106  and  _109
REMARK   43  A    between atoms: _109  and  _110
REMARK   44  A    between atoms: _113  and  _115
REMARK   45  A    between atoms: _115  and  _116
REMARK   46  A    between atoms: _115  and  _118
REMARK   47  A    between atoms: _120  and  _122
REMARK   48  A    between atoms: _122  and  _123
REMARK   49  A    between atoms: _125  and  _127
REMARK   50  A    between atoms: _127  and  _128
REMARK   51  A    between atoms: _127  and  _130
REMARK   52  A    between atoms: _130  and  _131
REMARK   53  A    between atoms: _136  and  _137
REMARK   54  A    between atoms: _139  and  _141
REMARK   55  A    between atoms: _141  and  _142
REMARK   56  A    between atoms: _141  and  _144
REMARK   57  A    between atoms: _144  and  _145
REMARK   58  A    between atoms: _150  and  _152
REMARK   59  A    between atoms: _152  and  _153
REMARK   60  A    between atoms: _152  and  _155
REMARK   61  A    between atoms: _155  and  _156
REMARK   62  A    between atoms: _159  and  _161
REMARK   63  A    between atoms: _161  and  _162
REMARK   64  A    between atoms: _161  and  _164
REMARK   65  A    between atoms: _168  and  _169
REMARK   66  A    between atoms: _174  and  _176
REMARK   67  A    between atoms: _176  and  _177
REMARK   68  A    between atoms: _179  and  _181
REMARK   69  A    between atoms: _181  and  _182
REMARK   70  A    between atoms: _181  and  _184
REMARK   71  A    between atoms: _182  and  _183
REMARK   72  A    between atoms: _182  and  _188
REMARK   73  A    between atoms: _183  and  CA_229
REMARK   74  A    between atoms: _184  and  _185
REMARK   75  A    between atoms: _188  and  _190
REMARK   76  A    between atoms: _190  and  _191
REMARK   77  A    between atoms: _190  and  _193
REMARK   78  A    between atoms: _193  and  _194
REMARK   79  A    between atoms: _199  and  _200
REMARK   80  A    between atoms: _202  and  _204
REMARK   81  A    between atoms: _204  and  _205
REMARK   82  A    between atoms: _207  and  _209
REMARK   83  A    between atoms: _209  and  _210
REMARK   84  A    between atoms: _209  and  _212
REMARK   85  A    between atoms: _212  and  _213
REMARK   86  A    between atoms: _218  and  _220
REMARK   87  A    between atoms: _220  and  _221
REMARK   88  A    between atoms: _220  and  _223
REMARK   89  A    between atoms: _223  and  _224
REMARK                            x       y       z     vdW  Elec       q    Type
REMARK                         _______ _______ _______ _____ _____    ______ ____
ROOT
ATOM      1  O   HOH     1      -4.948 -10.595 -51.825  0.00  0.00    +0.000 OA
ENDROOT
TORSDOF 0
REMARK  Name = ../refined-set-2016/5d21/5d21_pocket.pdb
REMARK  89 active torsions:
REMARK  status: ('A' for Active; 'I' for Inactive)
REMARK    1  A    between atoms: _1  and  _3
REMARK    2  A    between atoms: _3  and  _4
REMARK    3  A    between atoms: _3  and  _6
REMARK    4  A    between atoms: _6  and  _7
REMARK    5  A    between atoms: _9  and  _11
REMARK    6  A    between atoms: _11  and  _12
REMARK    7  A    between atoms: _11  and  _14
REMARK    8  A    between atoms: _12  and  _13
REMARK    9  A    between atoms: _12  and  _23
REMARK   10  A    between atoms: _13  and  CA_229
REMARK   11  A    between atoms: _14  and  _15
REMARK   12  A    between atoms: _20  and  _21
REMARK   13  A    between atoms: _23  and  _25
REMARK   14  A    between atoms: _25  and  _26
REMARK   15  A    between atoms: _29  and  _30
REMARK   16  A    between atoms: _35  and  _37
REMARK   17  A    between atoms: _37  and  _38
REMARK   18  A    between atoms: _37  and  _40
REMARK   19  A    between atoms: _40  and  _41
REMARK   20  A    between atoms: _51  and  _53
REMARK   21  A    between atoms: _53  and  _54
REMARK   22  A    between atoms: _53  and  _56
REMARK   23  A    between atoms: _56  and  _57
REMARK   24  A    between atoms: _60  and  _62
REMARK   25  A    between atoms: _62  and  _63
REMARK   26  A    between atoms: _62  and  _65
REMARK   27  A    between atoms: _65  and  _66
REMARK   28  A    between atoms: _72  and  _73
REMARK   29  A    between atoms: _78  and  _80
REMARK   30  A    between atoms: _80  and  _81
REMARK   31  A    between atoms: _80  and  _83
REMARK   32  A    between atoms: _83  and  _84
REMARK   33  A    between atoms: _87  and  _89
REMARK   34  A    between atoms: _89  and  _90
REMARK   35  A    between atoms: _89  and  _92
REMARK   36  A    between atoms: _92  and  _93
REMARK   37  A    between atoms: _93  and  _94
REMARK   38  A    between atoms: _99  and  _101
REMARK   39  A    between atoms: _101  and  _102
REMARK   40  A    between atoms: _104  and  _106
REMARK   41  A    between atoms: _106  and  _107
REMARK   42  A    between atoms: _106  and  _109
REMARK   43  A    between atoms: _109  and  _110
REMARK   44  A    between atoms: _113  and  _115
REMARK   45  A    between atoms: _115  and  _116
REMARK   46  A    between atoms: _115  and  _118
REMARK   47  A    between atoms: _120  and  _122
REMARK   48  A    between atoms: _122  and  _123
REMARK   49  A    between atoms: _125  and  _127
REMARK   50  A    between atoms: _127  and  _128
REMARK   51  A    between atoms: _127  and  _130
REMARK   52  A    between atoms: _130  and  _131
REMARK   53  A    between atoms: _136  and  _137
REMARK   54  A    between atoms: _139  and  _141
REMARK   55  A    between atoms: _141  and  _142
REMARK   56  A    between atoms: _141  and  _144
REMARK   57  A    between atoms: _144  and  _145
REMARK   58  A    between atoms: _150  and  _152
REMARK   59  A    between atoms: _152  and  _153
REMARK   60  A    between atoms: _152  and  _155
REMARK   61  A    between atoms: _155  and  _156
REMARK   62  A    between atoms: _159  and  _161
REMARK   63  A    between atoms: _161  and  _162
REMARK   64  A    between atoms: _161  and  _164
REMARK   65  A    between atoms: _168  and  _169
REMARK   66  A    between atoms: _174  and  _176
REMARK   67  A    between atoms: _176  and  _177
REMARK   68  A    between atoms: _179  and  _181
REMARK   69  A    between atoms: _181  and  _182
REMARK   70  A    between atoms: _181  and  _184
REMARK   71  A    between atoms: _182  and  _183
REMARK   72  A    between atoms: _182  and  _188
REMARK   73  A    between atoms: _183  and  CA_229
REMARK   74  A    between atoms: _184  and  _185
REMARK   75  A    between atoms: _188  and  _190
REMARK   76  A    between atoms: _190  and  _191
REMARK   77  A    between atoms: _190  and  _193
REMARK   78  A    between atoms: _193  and  _194
REMARK   79  A    between atoms: _199  and  _200
REMARK   80  A    between atoms: _202  and  _204
REMARK   81  A    between atoms: _204  and  _205
REMARK   82  A    between atoms: _207  and  _209
REMARK   83  A    between atoms: _209  and  _210
REMARK   84  A    between atoms: _209  and  _212
REMARK   85  A    between atoms: _212  and  _213
REMARK   86  A    between atoms: _218  and  _220
REMARK   87  A    between atoms: _220  and  _221
REMARK   88  A    between atoms: _220  and  _223
REMARK   89  A    between atoms: _223  and  _224
REMARK                            x       y       z     vdW  Elec       q    Type
REMARK                         _______ _______ _______ _____ _____    ______ ____
ROOT
ATOM      1  O   HOH     1       6.423 -12.324 -53.528  0.00  0.00    +0.000 OA
ENDROOT
TORSDOF 0
REMARK  Name = ../refined-set-2016/5d21/5d21_pocket.pdb
REMARK  89 active torsions:
REMARK  status: ('A' for Active; 'I' for Inactive)
REMARK    1  A    between atoms: _1  and  _3
REMARK    2  A    between atoms: _3  and  _4
REMARK    3  A    between atoms: _3  and  _6
REMARK    4  A    between atoms: _6  and  _7
REMARK    5  A    between atoms: _9  and  _11
REMARK    6  A    between atoms: _11  and  _12
REMARK    7  A    between atoms: _11  and  _14
REMARK    8  A    between atoms: _12  and  _13
REMARK    9  A    between atoms: _12  and  _23
REMARK   10  A    between atoms: _13  and  CA_229
REMARK   11  A    between atoms: _14  and  _15
REMARK   12  A    between atoms: _20  and  _21
REMARK   13  A    between atoms: _23  and  _25
REMARK   14  A    between atoms: _25  and  _26
REMARK   15  A    between atoms: _29  and  _30
REMARK   16  A    between atoms: _35  and  _37
REMARK   17  A    between atoms: _37  and  _38
REMARK   18  A    between atoms: _37  and  _40
REMARK   19  A    between atoms: _40  and  _41
REMARK   20  A    between atoms: _51  and  _53
REMARK   21  A    between atoms: _53  and  _54
REMARK   22  A    between atoms: _53  and  _56
REMARK   23  A    between atoms: _56  and  _57
REMARK   24  A    between atoms: _60  and  _62
REMARK   25  A    between atoms: _62  and  _63
REMARK   26  A    between atoms: _62  and  _65
REMARK   27  A    between atoms: _65  and  _66
REMARK   28  A    between atoms: _72  and  _73
REMARK   29  A    between atoms: _78  and  _80
REMARK   30  A    between atoms: _80  and  _81
REMARK   31  A    between atoms: _80  and  _83
REMARK   32  A    between atoms: _83  and  _84
REMARK   33  A    between atoms: _87  and  _89
REMARK   34  A    between atoms: _89  and  _90
REMARK   35  A    between atoms: _89  and  _92
REMARK   36  A    between atoms: _92  and  _93
REMARK   37  A    between atoms: _93  and  _94
REMARK   38  A    between atoms: _99  and  _101
REMARK   39  A    between atoms: _101  and  _102
REMARK   40  A    between atoms: _104  and  _106
REMARK   41  A    between atoms: _106  and  _107
REMARK   42  A    between atoms: _106  and  _109
REMARK   43  A    between atoms: _109  and  _110
REMARK   44  A    between atoms: _113  and  _115
REMARK   45  A    between atoms: _115  and  _116
REMARK   46  A    between atoms: _115  and  _118
REMARK   47  A    between atoms: _120  and  _122
REMARK   48  A    between atoms: _122  and  _123
REMARK   49  A    between atoms: _125  and  _127
REMARK   50  A    between atoms: _127  and  _128
REMARK   51  A    between atoms: _127  and  _130
REMARK   52  A    between atoms: _130  and  _131
REMARK   53  A    between atoms: _136  and  _137
REMARK   54  A    between atoms: _139  and  _141
REMARK   55  A    between atoms: _141  and  _142
REMARK   56  A    between atoms: _141  and  _144
REMARK   57  A    between atoms: _144  and  _145
REMARK   58  A    between atoms: _150  and  _152
REMARK   59  A    between atoms: _152  and  _153
REMARK   60  A    between atoms: _152  and  _155
REMARK   61  A    between atoms: _155  and  _156
REMARK   62  A    between atoms: _159  and  _161
REMARK   63  A    between atoms: _161  and  _162
REMARK   64  A    between atoms: _161  and  _164
REMARK   65  A    between atoms: _168  and  _169
REMARK   66  A    between atoms: _174  and  _176
REMARK   67  A    between atoms: _176  and  _177
REMARK   68  A    between atoms: _179  and  _181
REMARK   69  A    between atoms: _181  and  _182
REMARK   70  A    between atoms: _181  and  _184
REMARK   71  A    between atoms: _182  and  _183
REMARK   72  A    between atoms: _182  and  _188
REMARK   73  A    between atoms: _183  and  CA_229
REMARK   74  A    between atoms: _184  and  _185
REMARK   75  A    between atoms: _188  and  _190
REMARK   76  A    between atoms: _190  and  _191
REMARK   77  A    between atoms: _190  and  _193
REMARK   78  A    between atoms: _193  and  _194
REMARK   79  A    between atoms: _199  and  _200
REMARK   80  A    between atoms: _202  and  _204
REMARK   81  A    between atoms: _204  and  _205
REMARK   82  A    between atoms: _207  and  _209
REMARK   83  A    between atoms: _209  and  _210
REMARK   84  A    between atoms: _209  and  _212
REMARK   85  A    between atoms: _212  and  _213
REMARK   86  A    between atoms: _218  and  _220
REMARK   87  A    between atoms: _220  and  _221
REMARK   88  A    between atoms: _220  and  _223
REMARK   89  A    between atoms: _223  and  _224
REMARK                            x       y       z     vdW  Elec       q    Type
REMARK                         _______ _______ _______ _____ _____    ______ ____
ROOT
ATOM      1  O   HOH     1      -9.156 -19.029 -52.286  0.00  0.00    +0.000 OA
ENDROOT
TORSDOF 0
REMARK  Name = ../refined-set-2016/5d21/5d21_pocket.pdb
REMARK  89 active torsions:
REMARK  status: ('A' for Active; 'I' for Inactive)
REMARK    1  A    between atoms: _1  and  _3
REMARK    2  A    between atoms: _3  and  _4
REMARK    3  A    between atoms: _3  and  _6
REMARK    4  A    between atoms: _6  and  _7
REMARK    5  A    between atoms: _9  and  _11
REMARK    6  A    between atoms: _11  and  _12
REMARK    7  A    between atoms: _11  and  _14
REMARK    8  A    between atoms: _12  and  _13
REMARK    9  A    between atoms: _12  and  _23
REMARK   10  A    between atoms: _13  and  CA_229
REMARK   11  A    between atoms: _14  and  _15
REMARK   12  A    between atoms: _20  and  _21
REMARK   13  A    between atoms: _23  and  _25
REMARK   14  A    between atoms: _25  and  _26
REMARK   15  A    between atoms: _29  and  _30
REMARK   16  A    between atoms: _35  and  _37
REMARK   17  A    between atoms: _37  and  _38
REMARK   18  A    between atoms: _37  and  _40
REMARK   19  A    between atoms: _40  and  _41
REMARK   20  A    between atoms: _51  and  _53
REMARK   21  A    between atoms: _53  and  _54
REMARK   22  A    between atoms: _53  and  _56
REMARK   23  A    between atoms: _56  and  _57
REMARK   24  A    between atoms: _60  and  _62
REMARK   25  A    between atoms: _62  and  _63
REMARK   26  A    between atoms: _62  and  _65
REMARK   27  A    between atoms: _65  and  _66
REMARK   28  A    between atoms: _72  and  _73
REMARK   29  A    between atoms: _78  and  _80
REMARK   30  A    between atoms: _80  and  _81
REMARK   31  A    between atoms: _80  and  _83
REMARK   32  A    between atoms: _83  and  _84
REMARK   33  A    between atoms: _87  and  _89
REMARK   34  A    between atoms: _89  and  _90
REMARK   35  A    between atoms: _89  and  _92
REMARK   36  A    between atoms: _92  and  _93
REMARK   37  A    between atoms: _93  and  _94
REMARK   38  A    between atoms: _99  and  _101
REMARK   39  A    between atoms: _101  and  _102
REMARK   40  A    between atoms: _104  and  _106
REMARK   41  A    between atoms: _106  and  _107
REMARK   42  A    between atoms: _106  and  _109
REMARK   43  A    between atoms: _109  and  _110
REMARK   44  A    between atoms: _113  and  _115
REMARK   45  A    between atoms: _115  and  _116
REMARK   46  A    between atoms: _115  and  _118
REMARK   47  A    between atoms: _120  and  _122
REMARK   48  A    between atoms: _122  and  _123
REMARK   49  A    between atoms: _125  and  _127
REMARK   50  A    between atoms: _127  and  _128
REMARK   51  A    between atoms: _127  and  _130
REMARK   52  A    between atoms: _130  and  _131
REMARK   53  A    between atoms: _136  and  _137
REMARK   54  A    between atoms: _139  and  _141
REMARK   55  A    between atoms: _141  and  _142
REMARK   56  A    between atoms: _141  and  _144
REMARK   57  A    between atoms: _144  and  _145
REMARK   58  A    between atoms: _150  and  _152
REMARK   59  A    between atoms: _152  and  _153
REMARK   60  A    between atoms: _152  and  _155
REMARK   61  A    between atoms: _155  and  _156
REMARK   62  A    between atoms: _159  and  _161
REMARK   63  A    between atoms: _161  and  _162
REMARK   64  A    between atoms: _161  and  _164
REMARK   65  A    between atoms: _168  and  _169
REMARK   66  A    between atoms: _174  and  _176
REMARK   67  A    between atoms: _176  and  _177
REMARK   68  A    between atoms: _179  and  _181
REMARK   69  A    between atoms: _181  and  _182
REMARK   70  A    between atoms: _181  and  _184
REMARK   71  A    between atoms: _182  and  _183
REMARK   72  A    between atoms: _182  and  _188
REMARK   73  A    between atoms: _183  and  CA_229
REMARK   74  A    between atoms: _184  and  _185
REMARK   75  A    between atoms: _188  and  _190
REMARK   76  A    between atoms: _190  and  _191
REMARK   77  A    between atoms: _190  and  _193
REMARK   78  A    between atoms: _193  and  _194
REMARK   79  A    between atoms: _199  and  _200
REMARK   80  A    between atoms: _202  and  _204
REMARK   81  A    between atoms: _204  and  _205
REMARK   82  A    between atoms: _207  and  _209
REMARK   83  A    between atoms: _209  and  _210
REMARK   84  A    between atoms: _209  and  _212
REMARK   85  A    between atoms: _212  and  _213
REMARK   86  A    between atoms: _218  and  _220
REMARK   87  A    between atoms: _220  and  _221
REMARK   88  A    between atoms: _220  and  _223
REMARK   89  A    between atoms: _223  and  _224
REMARK                            x       y       z     vdW  Elec       q    Type
REMARK                         _______ _______ _______ _____ _____    ______ ____
ROOT
ATOM      1  O   HOH     1       4.144  -9.255 -54.303  0.00  0.00    +0.000 OA
ENDROOT
TORSDOF 0
REMARK  Name = ../refined-set-2016/5d21/5d21_pocket.pdb
REMARK  89 active torsions:
REMARK  status: ('A' for Active; 'I' for Inactive)
REMARK    1  A    between atoms: _1  and  _3
REMARK    2  A    between atoms: _3  and  _4
REMARK    3  A    between atoms: _3  and  _6
REMARK    4  A    between atoms: _6  and  _7
REMARK    5  A    between atoms: _9  and  _11
REMARK    6  A    between atoms: _11  and  _12
REMARK    7  A    between atoms: _11  and  _14
REMARK    8  A    between atoms: _12  and  _13
REMARK    9  A    between atoms: _12  and  _23
REMARK   10  A    between atoms: _13  and  CA_229
REMARK   11  A    between atoms: _14  and  _15
REMARK   12  A    between atoms: _20  and  _21
REMARK   13  A    between atoms: _23  and  _25
REMARK   14  A    between atoms: _25  and  _26
REMARK   15  A    between atoms: _29  and  _30
REMARK   16  A    between atoms: _35  and  _37
REMARK   17  A    between atoms: _37  and  _38
REMARK   18  A    between atoms: _37  and  _40
REMARK   19  A    between atoms: _40  and  _41
REMARK   20  A    between atoms: _51  and  _53
REMARK   21  A    between atoms: _53  and  _54
REMARK   22  A    between atoms: _53  and  _56
REMARK   23  A    between atoms: _56  and  _57
REMARK   24  A    between atoms: _60  and  _62
REMARK   25  A    between atoms: _62  and  _63
REMARK   26  A    between atoms: _62  and  _65
REMARK   27  A    between atoms: _65  and  _66
REMARK   28  A    between atoms: _72  and  _73
REMARK   29  A    between atoms: _78  and  _80
REMARK   30  A    between atoms: _80  and  _81
REMARK   31  A    between atoms: _80  and  _83
REMARK   32  A    between atoms: _83  and  _84
REMARK   33  A    between atoms: _87  and  _89
REMARK   34  A    between atoms: _89  and  _90
REMARK   35  A    between atoms: _89  and  _92
REMARK   36  A    between atoms: _92  and  _93
REMARK   37  A    between atoms: _93  and  _94
REMARK   38  A    between atoms: _99  and  _101
REMARK   39  A    between atoms: _101  and  _102
REMARK   40  A    between atoms: _104  and  _106
REMARK   41  A    between atoms: _106  and  _107
REMARK   42  A    between atoms: _106  and  _109
REMARK   43  A    between atoms: _109  and  _110
REMARK   44  A    between atoms: _113  and  _115
REMARK   45  A    between atoms: _115  and  _116
REMARK   46  A    between atoms: _115  and  _118
REMARK   47  A    between atoms: _120  and  _122
REMARK   48  A    between atoms: _122  and  _123
REMARK   49  A    between atoms: _125  and  _127
REMARK   50  A    between atoms: _127  and  _128
REMARK   51  A    between atoms: _127  and  _130
REMARK   52  A    between atoms: _130  and  _131
REMARK   53  A    between atoms: _136  and  _137
REMARK   54  A    between atoms: _139  and  _141
REMARK   55  A    between atoms: _141  and  _142
REMARK   56  A    between atoms: _141  and  _144
REMARK   57  A    between atoms: _144  and  _145
REMARK   58  A    between atoms: _150  and  _152
REMARK   59  A    between atoms: _152  and  _153
REMARK   60  A    between atoms: _152  and  _155
REMARK   61  A    between atoms: _155  and  _156
REMARK   62  A    between atoms: _159  and  _161
REMARK   63  A    between atoms: _161  and  _162
REMARK   64  A    between atoms: _161  and  _164
REMARK   65  A    between atoms: _168  and  _169
REMARK   66  A    between atoms: _174  and  _176
REMARK   67  A    between atoms: _176  and  _177
REMARK   68  A    between atoms: _179  and  _181
REMARK   69  A    between atoms: _181  and  _182
REMARK   70  A    between atoms: _181  and  _184
REMARK   71  A    between atoms: _182  and  _183
REMARK   72  A    between atoms: _182  and  _188
REMARK   73  A    between atoms: _183  and  CA_229
REMARK   74  A    between atoms: _184  and  _185
REMARK   75  A    between atoms: _188  and  _190
REMARK   76  A    between atoms: _190  and  _191
REMARK   77  A    between atoms: _190  and  _193
REMARK   78  A    between atoms: _193  and  _194
REMARK   79  A    between atoms: _199  and  _200
REMARK   80  A    between atoms: _202  and  _204
REMARK   81  A    between atoms: _204  and  _205
REMARK   82  A    between atoms: _207  and  _209
REMARK   83  A    between atoms: _209  and  _210
REMARK   84  A    between atoms: _209  and  _212
REMARK   85  A    between atoms: _212  and  _213
REMARK   86  A    between atoms: _218  and  _220
REMARK   87  A    between atoms: _220  and  _221
REMARK   88  A    between atoms: _220  and  _223
REMARK   89  A    between atoms: _223  and  _224
REMARK                            x       y       z     vdW  Elec       q    Type
REMARK                         _______ _______ _______ _____ _____    ______ ____
ROOT
ATOM      1  O   HOH     1       6.129 -21.250 -48.799  0.00  0.00    +0.000 OA
ENDROOT
TORSDOF 0
REMARK  Name = ../refined-set-2016/5d21/5d21_pocket.pdb
REMARK  89 active torsions:
REMARK  status: ('A' for Active; 'I' for Inactive)
REMARK    1  A    between atoms: _1  and  _3
REMARK    2  A    between atoms: _3  and  _4
REMARK    3  A    between atoms: _3  and  _6
REMARK    4  A    between atoms: _6  and  _7
REMARK    5  A    between atoms: _9  and  _11
REMARK    6  A    between atoms: _11  and  _12
REMARK    7  A    between atoms: _11  and  _14
REMARK    8  A    between atoms: _12  and  _13
REMARK    9  A    between atoms: _12  and  _23
REMARK   10  A    between atoms: _13  and  CA_229
REMARK   11  A    between atoms: _14  and  _15
REMARK   12  A    between atoms: _20  and  _21
REMARK   13  A    between atoms: _23  and  _25
REMARK   14  A    between atoms: _25  and  _26
REMARK   15  A    between atoms: _29  and  _30
REMARK   16  A    between atoms: _35  and  _37
REMARK   17  A    between atoms: _37  and  _38
REMARK   18  A    between atoms: _37  and  _40
REMARK   19  A    between atoms: _40  and  _41
REMARK   20  A    between atoms: _51  and  _53
REMARK   21  A    between atoms: _53  and  _54
REMARK   22  A    between atoms: _53  and  _56
REMARK   23  A    between atoms: _56  and  _57
REMARK   24  A    between atoms: _60  and  _62
REMARK   25  A    between atoms: _62  and  _63
REMARK   26  A    between atoms: _62  and  _65
REMARK   27  A    between atoms: _65  and  _66
REMARK   28  A    between atoms: _72  and  _73
REMARK   29  A    between atoms: _78  and  _80
REMARK   30  A    between atoms: _80  and  _81
REMARK   31  A    between atoms: _80  and  _83
REMARK   32  A    between atoms: _83  and  _84
REMARK   33  A    between atoms: _87  and  _89
REMARK   34  A    between atoms: _89  and  _90
REMARK   35  A    between atoms: _89  and  _92
REMARK   36  A    between atoms: _92  and  _93
REMARK   37  A    between atoms: _93  and  _94
REMARK   38  A    between atoms: _99  and  _101
REMARK   39  A    between atoms: _101  and  _102
REMARK   40  A    between atoms: _104  and  _106
REMARK   41  A    between atoms: _106  and  _107
REMARK   42  A    between atoms: _106  and  _109
REMARK   43  A    between atoms: _109  and  _110
REMARK   44  A    between atoms: _113  and  _115
REMARK   45  A    between atoms: _115  and  _116
REMARK   46  A    between atoms: _115  and  _118
REMARK   47  A    between atoms: _120  and  _122
REMARK   48  A    between atoms: _122  and  _123
REMARK   49  A    between atoms: _125  and  _127
REMARK   50  A    between atoms: _127  and  _128
REMARK   51  A    between atoms: _127  and  _130
REMARK   52  A    between atoms: _130  and  _131
REMARK   53  A    between atoms: _136  and  _137
REMARK   54  A    between atoms: _139  and  _141
REMARK   55  A    between atoms: _141  and  _142
REMARK   56  A    between atoms: _141  and  _144
REMARK   57  A    between atoms: _144  and  _145
REMARK   58  A    between atoms: _150  and  _152
REMARK   59  A    between atoms: _152  and  _153
REMARK   60  A    between atoms: _152  and  _155
REMARK   61  A    between atoms: _155  and  _156
REMARK   62  A    between atoms: _159  and  _161
REMARK   63  A    between atoms: _161  and  _162
REMARK   64  A    between atoms: _161  and  _164
REMARK   65  A    between atoms: _168  and  _169
REMARK   66  A    between atoms: _174  and  _176
REMARK   67  A    between atoms: _176  and  _177
REMARK   68  A    between atoms: _179  and  _181
REMARK   69  A    between atoms: _181  and  _182
REMARK   70  A    between atoms: _181  and  _184
REMARK   71  A    between atoms: _182  and  _183
REMARK   72  A    between atoms: _182  and  _188
REMARK   73  A    between atoms: _183  and  CA_229
REMARK   74  A    between atoms: _184  and  _185
REMARK   75  A    between atoms: _188  and  _190
REMARK   76  A    between atoms: _190  and  _191
REMARK   77  A    between atoms: _190  and  _193
REMARK   78  A    between atoms: _193  and  _194
REMARK   79  A    between atoms: _199  and  _200
REMARK   80  A    between atoms: _202  and  _204
REMARK   81  A    between atoms: _204  and  _205
REMARK   82  A    between atoms: _207  and  _209
REMARK   83  A    between atoms: _209  and  _210
REMARK   84  A    between atoms: _209  and  _212
REMARK   85  A    between atoms: _212  and  _213
REMARK   86  A    between atoms: _218  and  _220
REMARK   87  A    between atoms: _220  and  _221
REMARK   88  A    between atoms: _220  and  _223
REMARK   89  A    between atoms: _223  and  _224
REMARK                            x       y       z     vdW  Elec       q    Type
REMARK                         _______ _______ _______ _____ _____    ______ ____
ROOT
ATOM      1  O   HOH     1      -2.631 -21.231 -49.424  0.00  0.00    +0.000 OA
ENDROOT
TORSDOF 0
REMARK  Name = ../refined-set-2016/5d21/5d21_pocket.pdb
REMARK  89 active torsions:
REMARK  status: ('A' for Active; 'I' for Inactive)
REMARK    1  A    between atoms: _1  and  _3
REMARK    2  A    between atoms: _3  and  _4
REMARK    3  A    between atoms: _3  and  _6
REMARK    4  A    between atoms: _6  and  _7
REMARK    5  A    between atoms: _9  and  _11
REMARK    6  A    between atoms: _11  and  _12
REMARK    7  A    between atoms: _11  and  _14
REMARK    8  A    between atoms: _12  and  _13
REMARK    9  A    between atoms: _12  and  _23
REMARK   10  A    between atoms: _13  and  CA_229
REMARK   11  A    between atoms: _14  and  _15
REMARK   12  A    between atoms: _20  and  _21
REMARK   13  A    between atoms: _23  and  _25
REMARK   14  A    between atoms: _25  and  _26
REMARK   15  A    between atoms: _29  and  _30
REMARK   16  A    between atoms: _35  and  _37
REMARK   17  A    between atoms: _37  and  _38
REMARK   18  A    between atoms: _37  and  _40
REMARK   19  A    between atoms: _40  and  _41
REMARK   20  A    between atoms: _51  and  _53
REMARK   21  A    between atoms: _53  and  _54
REMARK   22  A    between atoms: _53  and  _56
REMARK   23  A    between atoms: _56  and  _57
REMARK   24  A    between atoms: _60  and  _62
REMARK   25  A    between atoms: _62  and  _63
REMARK   26  A    between atoms: _62  and  _65
REMARK   27  A    between atoms: _65  and  _66
REMARK   28  A    between atoms: _72  and  _73
REMARK   29  A    between atoms: _78  and  _80
REMARK   30  A    between atoms: _80  and  _81
REMARK   31  A    between atoms: _80  and  _83
REMARK   32  A    between atoms: _83  and  _84
REMARK   33  A    between atoms: _87  and  _89
REMARK   34  A    between atoms: _89  and  _90
REMARK   35  A    between atoms: _89  and  _92
REMARK   36  A    between atoms: _92  and  _93
REMARK   37  A    between atoms: _93  and  _94
REMARK   38  A    between atoms: _99  and  _101
REMARK   39  A    between atoms: _101  and  _102
REMARK   40  A    between atoms: _104  and  _106
REMARK   41  A    between atoms: _106  and  _107
REMARK   42  A    between atoms: _106  and  _109
REMARK   43  A    between atoms: _109  and  _110
REMARK   44  A    between atoms: _113  and  _115
REMARK   45  A    between atoms: _115  and  _116
REMARK   46  A    between atoms: _115  and  _118
REMARK   47  A    between atoms: _120  and  _122
REMARK   48  A    between atoms: _122  and  _123
REMARK   49  A    between atoms: _125  and  _127
REMARK   50  A    between atoms: _127  and  _128
REMARK   51  A    between atoms: _127  and  _130
REMARK   52  A    between atoms: _130  and  _131
REMARK   53  A    between atoms: _136  and  _137
REMARK   54  A    between atoms: _139  and  _141
REMARK   55  A    between atoms: _141  and  _142
REMARK   56  A    between atoms: _141  and  _144
REMARK   57  A    between atoms: _144  and  _145
REMARK   58  A    between atoms: _150  and  _152
REMARK   59  A    between atoms: _152  and  _153
REMARK   60  A    between atoms: _152  and  _155
REMARK   61  A    between atoms: _155  and  _156
REMARK   62  A    between atoms: _159  and  _161
REMARK   63  A    between atoms: _161  and  _162
REMARK   64  A    between atoms: _161  and  _164
REMARK   65  A    between atoms: _168  and  _169
REMARK   66  A    between atoms: _174  and  _176
REMARK   67  A    between atoms: _176  and  _177
REMARK   68  A    between atoms: _179  and  _181
REMARK   69  A    between atoms: _181  and  _182
REMARK   70  A    between atoms: _181  and  _184
REMARK   71  A    between atoms: _182  and  _183
REMARK   72  A    between atoms: _182  and  _188
REMARK   73  A    between atoms: _183  and  CA_229
REMARK   74  A    between atoms: _184  and  _185
REMARK   75  A    between atoms: _188  and  _190
REMARK   76  A    between atoms: _190  and  _191
REMARK   77  A    between atoms: _190  and  _193
REMARK   78  A    between atoms: _193  and  _194
REMARK   79  A    between atoms: _199  and  _200
REMARK   80  A    between atoms: _202  and  _204
REMARK   81  A    between atoms: _204  and  _205
REMARK   82  A    between atoms: _207  and  _209
REMARK   83  A    between atoms: _209  and  _210
REMARK   84  A    between atoms: _209  and  _212
REMARK   85  A    between atoms: _212  and  _213
REMARK   86  A    between atoms: _218  and  _220
REMARK   87  A    between atoms: _220  and  _221
REMARK   88  A    between atoms: _220  and  _223
REMARK   89  A    between atoms: _223  and  _224
REMARK                            x       y       z     vdW  Elec       q    Type
REMARK                         _______ _______ _______ _____ _____    ______ ____
ROOT
ATOM      1  O   HOH     1       5.151 -23.449 -49.830  0.00  0.00    +0.000 OA
ENDROOT
TORSDOF 0
REMARK  Name = ../refined-set-2016/5d21/5d21_pocket.pdb
REMARK  89 active torsions:
REMARK  status: ('A' for Active; 'I' for Inactive)
REMARK    1  A    between atoms: _1  and  _3
REMARK    2  A    between atoms: _3  and  _4
REMARK    3  A    between atoms: _3  and  _6
REMARK    4  A    between atoms: _6  and  _7
REMARK    5  A    between atoms: _9  and  _11
REMARK    6  A    between atoms: _11  and  _12
REMARK    7  A    between atoms: _11  and  _14
REMARK    8  A    between atoms: _12  and  _13
REMARK    9  A    between atoms: _12  and  _23
REMARK   10  A    between atoms: _13  and  CA_229
REMARK   11  A    between atoms: _14  and  _15
REMARK   12  A    between atoms: _20  and  _21
REMARK   13  A    between atoms: _23  and  _25
REMARK   14  A    between atoms: _25  and  _26
REMARK   15  A    between atoms: _29  and  _30
REMARK   16  A    between atoms: _35  and  _37
REMARK   17  A    between atoms: _37  and  _38
REMARK   18  A    between atoms: _37  and  _40
REMARK   19  A    between atoms: _40  and  _41
REMARK   20  A    between atoms: _51  and  _53
REMARK   21  A    between atoms: _53  and  _54
REMARK   22  A    between atoms: _53  and  _56
REMARK   23  A    between atoms: _56  and  _57
REMARK   24  A    between atoms: _60  and  _62
REMARK   25  A    between atoms: _62  and  _63
REMARK   26  A    between atoms: _62  and  _65
REMARK   27  A    between atoms: _65  and  _66
REMARK   28  A    between atoms: _72  and  _73
REMARK   29  A    between atoms: _78  and  _80
REMARK   30  A    between atoms: _80  and  _81
REMARK   31  A    between atoms: _80  and  _83
REMARK   32  A    between atoms: _83  and  _84
REMARK   33  A    between atoms: _87  and  _89
REMARK   34  A    between atoms: _89  and  _90
REMARK   35  A    between atoms: _89  and  _92
REMARK   36  A    between atoms: _92  and  _93
REMARK   37  A    between atoms: _93  and  _94
REMARK   38  A    between atoms: _99  and  _101
REMARK   39  A    between atoms: _101  and  _102
REMARK   40  A    between atoms: _104  and  _106
REMARK   41  A    between atoms: _106  and  _107
REMARK   42  A    between atoms: _106  and  _109
REMARK   43  A    between atoms: _109  and  _110
REMARK   44  A    between atoms: _113  and  _115
REMARK   45  A    between atoms: _115  and  _116
REMARK   46  A    between atoms: _115  and  _118
REMARK   47  A    between atoms: _120  and  _122
REMARK   48  A    between atoms: _122  and  _123
REMARK   49  A    between atoms: _125  and  _127
REMARK   50  A    between atoms: _127  and  _128
REMARK   51  A    between atoms: _127  and  _130
REMARK   52  A    between atoms: _130  and  _131
REMARK   53  A    between atoms: _136  and  _137
REMARK   54  A    between atoms: _139  and  _141
REMARK   55  A    between atoms: _141  and  _142
REMARK   56  A    between atoms: _141  and  _144
REMARK   57  A    between atoms: _144  and  _145
REMARK   58  A    between atoms: _150  and  _152
REMARK   59  A    between atoms: _152  and  _153
REMARK   60  A    between atoms: _152  and  _155
REMARK   61  A    between atoms: _155  and  _156
REMARK   62  A    between atoms: _159  and  _161
REMARK   63  A    between atoms: _161  and  _162
REMARK   64  A    between atoms: _161  and  _164
REMARK   65  A    between atoms: _168  and  _169
REMARK   66  A    between atoms: _174  and  _176
REMARK   67  A    between atoms: _176  and  _177
REMARK   68  A    between atoms: _179  and  _181
REMARK   69  A    between atoms: _181  and  _182
REMARK   70  A    between atoms: _181  and  _184
REMARK   71  A    between atoms: _182  and  _183
REMARK   72  A    between atoms: _182  and  _188
REMARK   73  A    between atoms: _183  and  CA_229
REMARK   74  A    between atoms: _184  and  _185
REMARK   75  A    between atoms: _188  and  _190
REMARK   76  A    between atoms: _190  and  _191
REMARK   77  A    between atoms: _190  and  _193
REMARK   78  A    between atoms: _193  and  _194
REMARK   79  A    between atoms: _199  and  _200
REMARK   80  A    between atoms: _202  and  _204
REMARK   81  A    between atoms: _204  and  _205
REMARK   82  A    between atoms: _207  and  _209
REMARK   83  A    between atoms: _209  and  _210
REMARK   84  A    between atoms: _209  and  _212
REMARK   85  A    between atoms: _212  and  _213
REMARK   86  A    between atoms: _218  and  _220
REMARK   87  A    between atoms: _220  and  _221
REMARK   88  A    between atoms: _220  and  _223
REMARK   89  A    between atoms: _223  and  _224
REMARK                            x       y       z     vdW  Elec       q    Type
REMARK                         _______ _______ _______ _____ _____    ______ ____
ROOT
ATOM      1  O   HOH     1      -0.698  -8.636 -52.213  0.00  0.00    +0.000 OA
ENDROOT
TORSDOF 0
REMARK  Name = ../refined-set-2016/5d21/5d21_pocket.pdb
REMARK  89 active torsions:
REMARK  status: ('A' for Active; 'I' for Inactive)
REMARK    1  A    between atoms: _1  and  _3
REMARK    2  A    between atoms: _3  and  _4
REMARK    3  A    between atoms: _3  and  _6
REMARK    4  A    between atoms: _6  and  _7
REMARK    5  A    between atoms: _9  and  _11
REMARK    6  A    between atoms: _11  and  _12
REMARK    7  A    between atoms: _11  and  _14
REMARK    8  A    between atoms: _12  and  _13
REMARK    9  A    between atoms: _12  and  _23
REMARK   10  A    between atoms: _13  and  CA_229
REMARK   11  A    between atoms: _14  and  _15
REMARK   12  A    between atoms: _20  and  _21
REMARK   13  A    between atoms: _23  and  _25
REMARK   14  A    between atoms: _25  and  _26
REMARK   15  A    between atoms: _29  and  _30
REMARK   16  A    between atoms: _35  and  _37
REMARK   17  A    between atoms: _37  and  _38
REMARK   18  A    between atoms: _37  and  _40
REMARK   19  A    between atoms: _40  and  _41
REMARK   20  A    between atoms: _51  and  _53
REMARK   21  A    between atoms: _53  and  _54
REMARK   22  A    between atoms: _53  and  _56
REMARK   23  A    between atoms: _56  and  _57
REMARK   24  A    between atoms: _60  and  _62
REMARK   25  A    between atoms: _62  and  _63
REMARK   26  A    between atoms: _62  and  _65
REMARK   27  A    between atoms: _65  and  _66
REMARK   28  A    between atoms: _72  and  _73
REMARK   29  A    between atoms: _78  and  _80
REMARK   30  A    between atoms: _80  and  _81
REMARK   31  A    between atoms: _80  and  _83
REMARK   32  A    between atoms: _83  and  _84
REMARK   33  A    between atoms: _87  and  _89
REMARK   34  A    between atoms: _89  and  _90
REMARK   35  A    between atoms: _89  and  _92
REMARK   36  A    between atoms: _92  and  _93
REMARK   37  A    between atoms: _93  and  _94
REMARK   38  A    between atoms: _99  and  _101
REMARK   39  A    between atoms: _101  and  _102
REMARK   40  A    between atoms: _104  and  _106
REMARK   41  A    between atoms: _106  and  _107
REMARK   42  A    between atoms: _106  and  _109
REMARK   43  A    between atoms: _109  and  _110
REMARK   44  A    between atoms: _113  and  _115
REMARK   45  A    between atoms: _115  and  _116
REMARK   46  A    between atoms: _115  and  _118
REMARK   47  A    between atoms: _120  and  _122
REMARK   48  A    between atoms: _122  and  _123
REMARK   49  A    between atoms: _125  and  _127
REMARK   50  A    between atoms: _127  and  _128
REMARK   51  A    between atoms: _127  and  _130
REMARK   52  A    between atoms: _130  and  _131
REMARK   53  A    between atoms: _136  and  _137
REMARK   54  A    between atoms: _139  and  _141
REMARK   55  A    between atoms: _141  and  _142
REMARK   56  A    between atoms: _141  and  _144
REMARK   57  A    between atoms: _144  and  _145
REMARK   58  A    between atoms: _150  and  _152
REMARK   59  A    between atoms: _152  and  _153
REMARK   60  A    between atoms: _152  and  _155
REMARK   61  A    between atoms: _155  and  _156
REMARK   62  A    between atoms: _159  and  _161
REMARK   63  A    between atoms: _161  and  _162
REMARK   64  A    between atoms: _161  and  _164
REMARK   65  A    between atoms: _168  and  _169
REMARK   66  A    between atoms: _174  and  _176
REMARK   67  A    between atoms: _176  and  _177
REMARK   68  A    between atoms: _179  and  _181
REMARK   69  A    between atoms: _181  and  _182
REMARK   70  A    between atoms: _181  and  _184
REMARK   71  A    between atoms: _182  and  _183
REMARK   72  A    between atoms: _182  and  _188
REMARK   73  A    between atoms: _183  and  CA_229
REMARK   74  A    between atoms: _184  and  _185
REMARK   75  A    between atoms: _188  and  _190
REMARK   76  A    between atoms: _190  and  _191
REMARK   77  A    between atoms: _190  and  _193
REMARK   78  A    between atoms: _193  and  _194
REMARK   79  A    between atoms: _199  and  _200
REMARK   80  A    between atoms: _202  and  _204
REMARK   81  A    between atoms: _204  and  _205
REMARK   82  A    between atoms: _207  and  _209
REMARK   83  A    between atoms: _209  and  _210
REMARK   84  A    between atoms: _209  and  _212
REMARK   85  A    between atoms: _212  and  _213
REMARK   86  A    between atoms: _218  and  _220
REMARK   87  A    between atoms: _220  and  _221
REMARK   88  A    between atoms: _220  and  _223
REMARK   89  A    between atoms: _223  and  _224
REMARK                            x       y       z     vdW  Elec       q    Type
REMARK                         _______ _______ _______ _____ _____    ______ ____
ROOT
ATOM      1  O   HOH     1       4.862 -15.233 -53.956  0.00  0.00    +0.000 OA
ENDROOT
TORSDOF 0
REMARK  Name = ../refined-set-2016/5d21/5d21_pocket.pdb
REMARK  89 active torsions:
REMARK  status: ('A' for Active; 'I' for Inactive)
REMARK    1  A    between atoms: _1  and  _3
REMARK    2  A    between atoms: _3  and  _4
REMARK    3  A    between atoms: _3  and  _6
REMARK    4  A    between atoms: _6  and  _7
REMARK    5  A    between atoms: _9  and  _11
REMARK    6  A    between atoms: _11  and  _12
REMARK    7  A    between atoms: _11  and  _14
REMARK    8  A    between atoms: _12  and  _13
REMARK    9  A    between atoms: _12  and  _23
REMARK   10  A    between atoms: _13  and  CA_229
REMARK   11  A    between atoms: _14  and  _15
REMARK   12  A    between atoms: _20  and  _21
REMARK   13  A    between atoms: _23  and  _25
REMARK   14  A    between atoms: _25  and  _26
REMARK   15  A    between atoms: _29  and  _30
REMARK   16  A    between atoms: _35  and  _37
REMARK   17  A    between atoms: _37  and  _38
REMARK   18  A    between atoms: _37  and  _40
REMARK   19  A    between atoms: _40  and  _41
REMARK   20  A    between atoms: _51  and  _53
REMARK   21  A    between atoms: _53  and  _54
REMARK   22  A    between atoms: _53  and  _56
REMARK   23  A    between atoms: _56  and  _57
REMARK   24  A    between atoms: _60  and  _62
REMARK   25  A    between atoms: _62  and  _63
REMARK   26  A    between atoms: _62  and  _65
REMARK   27  A    between atoms: _65  and  _66
REMARK   28  A    between atoms: _72  and  _73
REMARK   29  A    between atoms: _78  and  _80
REMARK   30  A    between atoms: _80  and  _81
REMARK   31  A    between atoms: _80  and  _83
REMARK   32  A    between atoms: _83  and  _84
REMARK   33  A    between atoms: _87  and  _89
REMARK   34  A    between atoms: _89  and  _90
REMARK   35  A    between atoms: _89  and  _92
REMARK   36  A    between atoms: _92  and  _93
REMARK   37  A    between atoms: _93  and  _94
REMARK   38  A    between atoms: _99  and  _101
REMARK   39  A    between atoms: _101  and  _102
REMARK   40  A    between atoms: _104  and  _106
REMARK   41  A    between atoms: _106  and  _107
REMARK   42  A    between atoms: _106  and  _109
REMARK   43  A    between atoms: _109  and  _110
REMARK   44  A    between atoms: _113  and  _115
REMARK   45  A    between atoms: _115  and  _116
REMARK   46  A    between atoms: _115  and  _118
REMARK   47  A    between atoms: _120  and  _122
REMARK   48  A    between atoms: _122  and  _123
REMARK   49  A    between atoms: _125  and  _127
REMARK   50  A    between atoms: _127  and  _128
REMARK   51  A    between atoms: _127  and  _130
REMARK   52  A    between atoms: _130  and  _131
REMARK   53  A    between atoms: _136  and  _137
REMARK   54  A    between atoms: _139  and  _141
REMARK   55  A    between atoms: _141  and  _142
REMARK   56  A    between atoms: _141  and  _144
REMARK   57  A    between atoms: _144  and  _145
REMARK   58  A    between atoms: _150  and  _152
REMARK   59  A    between atoms: _152  and  _153
REMARK   60  A    between atoms: _152  and  _155
REMARK   61  A    between atoms: _155  and  _156
REMARK   62  A    between atoms: _159  and  _161
REMARK   63  A    between atoms: _161  and  _162
REMARK   64  A    between atoms: _161  and  _164
REMARK   65  A    between atoms: _168  and  _169
REMARK   66  A    between atoms: _174  and  _176
REMARK   67  A    between atoms: _176  and  _177
REMARK   68  A    between atoms: _179  and  _181
REMARK   69  A    between atoms: _181  and  _182
REMARK   70  A    between atoms: _181  and  _184
REMARK   71  A    between atoms: _182  and  _183
REMARK   72  A    between atoms: _182  and  _188
REMARK   73  A    between atoms: _183  and  CA_229
REMARK   74  A    between atoms: _184  and  _185
REMARK   75  A    between atoms: _188  and  _190
REMARK   76  A    between atoms: _190  and  _191
REMARK   77  A    between atoms: _190  and  _193
REMARK   78  A    between atoms: _193  and  _194
REMARK   79  A    between atoms: _199  and  _200
REMARK   80  A    between atoms: _202  and  _204
REMARK   81  A    between atoms: _204  and  _205
REMARK   82  A    between atoms: _207  and  _209
REMARK   83  A    between atoms: _209  and  _210
REMARK   84  A    between atoms: _209  and  _212
REMARK   85  A    between atoms: _212  and  _213
REMARK   86  A    between atoms: _218  and  _220
REMARK   87  A    between atoms: _220  and  _221
REMARK   88  A    between atoms: _220  and  _223
REMARK   89  A    between atoms: _223  and  _224
REMARK                            x       y       z     vdW  Elec       q    Type
REMARK                         _______ _______ _______ _____ _____    ______ ____
ROOT
ATOM      1  O   HOH     1      -2.150 -25.173 -49.260  0.00  0.00    +0.000 OA
ENDROOT
TORSDOF 0
