REMARK  Name = ../refined-set-2016/1utl/1utl_pocket.pdb
REMARK  122 active torsions:
REMARK  status: ('A' for Active; 'I' for Inactive)
REMARK    1  A    between atoms: _1  and  _3
REMARK    2  A    between atoms: _3  and  _4
REMARK    3  A    between atoms: _3  and  _6
REMARK    4  A    between atoms: _9  and  _11
REMARK    5  A    between atoms: _11  and  _12
REMARK    6  A    between atoms: _11  and  _14
REMARK    7  A    between atoms: _14  and  _15
REMARK    8  A    between atoms: _15  and  _39
REMARK    9  A    between atoms: _16  and  _18
REMARK   10  A    between atoms: _18  and  _19
REMARK   11  A    between atoms: _22  and  _24
REMARK   12  A    between atoms: _24  and  _25
REMARK   13  A    between atoms: _24  and  _27
REMARK   14  A    between atoms: _27  and  _28
REMARK   15  A    between atoms: _33  and  _35
REMARK   16  A    between atoms: _35  and  _36
REMARK   17  A    between atoms: _35  and  _38
REMARK   18  A    between atoms: _38  and  _39
REMARK   19  A    between atoms: _40  and  _42
REMARK   20  A    between atoms: _42  and  _43
REMARK   21  A    between atoms: _42  and  _45
REMARK   22  A    between atoms: _45  and  _46
REMARK   23  A    between atoms: _49  and  _51
REMARK   24  A    between atoms: _51  and  _52
REMARK   25  A    between atoms: _51  and  _54
REMARK   26  A    between atoms: _54  and  _55
REMARK   27  A    between atoms: _58  and  _60
REMARK   28  A    between atoms: _60  and  _61
REMARK   29  A    between atoms: _60  and  _63
REMARK   30  A    between atoms: _63  and  _64
REMARK   31  A    between atoms: _69  and  _71
REMARK   32  A    between atoms: _71  and  _72
REMARK   33  A    between atoms: _71  and  _74
REMARK   34  A    between atoms: _74  and  _75
REMARK   35  A    between atoms: _80  and  _81
REMARK   36  A    between atoms: _83  and  _85
REMARK   37  A    between atoms: _85  and  _86
REMARK   38  A    between atoms: _89  and  _91
REMARK   39  A    between atoms: _91  and  _92
REMARK   40  A    between atoms: _91  and  _94
REMARK   41  A    between atoms: _94  and  _95
REMARK   42  A    between atoms: _95  and  _96
REMARK   43  A    between atoms: _96  and  _97
REMARK   44  A    between atoms: _97  and  _98
REMARK   45  A    between atoms: _102  and  _104
REMARK   46  A    between atoms: _104  and  _105
REMARK   47  A    between atoms: _104  and  _107
REMARK   48  A    between atoms: _107  and  _108
REMARK   49  A    between atoms: _111  and  _113
REMARK   50  A    between atoms: _113  and  _114
REMARK   51  A    between atoms: _113  and  _116
REMARK   52  A    between atoms: _116  and  _117
REMARK   53  A    between atoms: _119  and  _121
REMARK   54  A    between atoms: _121  and  _122
REMARK   55  A    between atoms: _121  and  _124
REMARK   56  A    between atoms: _124  and  _125
REMARK   57  A    between atoms: _125  and  _232
REMARK   58  A    between atoms: _126  and  _128
REMARK   59  A    between atoms: _128  and  _129
REMARK   60  A    between atoms: _128  and  _131
REMARK   61  A    between atoms: _131  and  _132
REMARK   62  A    between atoms: _132  and  _133
REMARK   63  A    between atoms: _138  and  _140
REMARK   64  A    between atoms: _140  and  _141
REMARK   65  A    between atoms: _143  and  _145
REMARK   66  A    between atoms: _145  and  _146
REMARK   67  A    between atoms: _145  and  _148
REMARK   68  A    between atoms: _148  and  _149
REMARK   69  A    between atoms: _152  and  _154
REMARK   70  A    between atoms: _154  and  _155
REMARK   71  A    between atoms: _154  and  _157
REMARK   72  A    between atoms: _157  and  _158
REMARK   73  A    between atoms: _160  and  _162
REMARK   74  A    between atoms: _162  and  _163
REMARK   75  A    between atoms: _165  and  _167
REMARK   76  A    between atoms: _167  and  _168
REMARK   77  A    between atoms: _170  and  _172
REMARK   78  A    between atoms: _172  and  _173
REMARK   79  A    between atoms: _172  and  _175
REMARK   80  A    between atoms: _178  and  _180
REMARK   81  A    between atoms: _180  and  _181
REMARK   82  A    between atoms: _180  and  _183
REMARK   83  A    between atoms: _183  and  _184
REMARK   84  A    between atoms: _186  and  _188
REMARK   85  A    between atoms: _188  and  _189
REMARK   86  A    between atoms: _188  and  _191
REMARK   87  A    between atoms: _191  and  _192
REMARK   88  A    between atoms: _202  and  _204
REMARK   89  A    between atoms: _204  and  _205
REMARK   90  A    between atoms: _207  and  _209
REMARK   91  A    between atoms: _209  and  _210
REMARK   92  A    between atoms: _209  and  _212
REMARK   93  A    between atoms: _212  and  _213
REMARK   94  A    between atoms: _218  and  _219
REMARK   95  A    between atoms: _221  and  _223
REMARK   96  A    between atoms: _223  and  _224
REMARK   97  A    between atoms: _226  and  _228
REMARK   98  A    between atoms: _228  and  _229
REMARK   99  A    between atoms: _228  and  _231
REMARK  100  A    between atoms: _231  and  _232
REMARK  101  A    between atoms: _233  and  _235
REMARK  102  A    between atoms: _235  and  _236
REMARK  103  A    between atoms: _239  and  _241
REMARK  104  A    between atoms: _241  and  _242
REMARK  105  A    between atoms: _241  and  _244
REMARK  106  A    between atoms: _244  and  _245
REMARK  107  A    between atoms: _245  and  _246
REMARK  108  A    between atoms: _249  and  _251
REMARK  109  A    between atoms: _251  and  _252
REMARK  110  A    between atoms: _251  and  _254
REMARK  111  A    between atoms: _254  and  _255
REMARK  112  A    between atoms: _261  and  _262
REMARK  113  A    between atoms: _267  and  _269
REMARK  114  A    between atoms: _269  and  _270
REMARK  115  A    between atoms: _272  and  _274
REMARK  116  A    between atoms: _274  and  _275
REMARK  117  A    between atoms: _274  and  _277
REMARK  118  A    between atoms: _280  and  _282
REMARK  119  A    between atoms: _282  and  _283
REMARK  120  A    between atoms: _282  and  _285
REMARK  121  A    between atoms: _285  and  _286
REMARK  122  A    between atoms: _291  and  _292
REMARK                            x       y       z     vdW  Elec       q    Type
REMARK                         _______ _______ _______ _____ _____    ______ ____
ROOT
ATOM      1  CA  VAL A   1      29.413  21.482  64.460  0.00  0.00    +0.133 C 
ENDROOT
BRANCH   1   2
ATOM      2  CB  VAL A   1      30.025  20.537  63.398  0.00  0.00    +0.023 C 
ATOM      3  CG2 VAL A   1      29.532  19.116  63.618  0.00  0.00    +0.002 C 
ATOM      4  CG1 VAL A   1      31.551  20.595  63.449  0.00  0.00    +0.002 C 
ENDBRANCH   1   2
BRANCH   1   5
ATOM      5  N   VAL A   1      27.963  21.399  64.459  0.00  0.00    -0.239 NA
ATOM      6  H   VAL A   1      27.454  21.431  63.553  0.00  0.00    +0.142 HD
ENDBRANCH   1   5
BRANCH   1   7
ATOM      7  C   VAL A   1      29.870  22.905  64.160  0.00  0.00    +0.224 C 
ATOM      8  O   VAL A   1      29.416  23.519  63.188  0.00  0.00    -0.287 OA
ENDBRANCH   1   7
TORSDOF 3
REMARK  Name = ../refined-set-2016/1utl/1utl_pocket.pdb
REMARK  122 active torsions:
REMARK  status: ('A' for Active; 'I' for Inactive)
REMARK    1  A    between atoms: _1  and  _3
REMARK    2  A    between atoms: _3  and  _4
REMARK    3  A    between atoms: _3  and  _6
REMARK    4  A    between atoms: _9  and  _11
REMARK    5  A    between atoms: _11  and  _12
REMARK    6  A    between atoms: _11  and  _14
REMARK    7  A    between atoms: _14  and  _15
REMARK    8  A    between atoms: _15  and  _39
REMARK    9  A    between atoms: _16  and  _18
REMARK   10  A    between atoms: _18  and  _19
REMARK   11  A    between atoms: _22  and  _24
REMARK   12  A    between atoms: _24  and  _25
REMARK   13  A    between atoms: _24  and  _27
REMARK   14  A    between atoms: _27  and  _28
REMARK   15  A    between atoms: _33  and  _35
REMARK   16  A    between atoms: _35  and  _36
REMARK   17  A    between atoms: _35  and  _38
REMARK   18  A    between atoms: _38  and  _39
REMARK   19  A    between atoms: _40  and  _42
REMARK   20  A    between atoms: _42  and  _43
REMARK   21  A    between atoms: _42  and  _45
REMARK   22  A    between atoms: _45  and  _46
REMARK   23  A    between atoms: _49  and  _51
REMARK   24  A    between atoms: _51  and  _52
REMARK   25  A    between atoms: _51  and  _54
REMARK   26  A    between atoms: _54  and  _55
REMARK   27  A    between atoms: _58  and  _60
REMARK   28  A    between atoms: _60  and  _61
REMARK   29  A    between atoms: _60  and  _63
REMARK   30  A    between atoms: _63  and  _64
REMARK   31  A    between atoms: _69  and  _71
REMARK   32  A    between atoms: _71  and  _72
REMARK   33  A    between atoms: _71  and  _74
REMARK   34  A    between atoms: _74  and  _75
REMARK   35  A    between atoms: _80  and  _81
REMARK   36  A    between atoms: _83  and  _85
REMARK   37  A    between atoms: _85  and  _86
REMARK   38  A    between atoms: _89  and  _91
REMARK   39  A    between atoms: _91  and  _92
REMARK   40  A    between atoms: _91  and  _94
REMARK   41  A    between atoms: _94  and  _95
REMARK   42  A    between atoms: _95  and  _96
REMARK   43  A    between atoms: _96  and  _97
REMARK   44  A    between atoms: _97  and  _98
REMARK   45  A    between atoms: _102  and  _104
REMARK   46  A    between atoms: _104  and  _105
REMARK   47  A    between atoms: _104  and  _107
REMARK   48  A    between atoms: _107  and  _108
REMARK   49  A    between atoms: _111  and  _113
REMARK   50  A    between atoms: _113  and  _114
REMARK   51  A    between atoms: _113  and  _116
REMARK   52  A    between atoms: _116  and  _117
REMARK   53  A    between atoms: _119  and  _121
REMARK   54  A    between atoms: _121  and  _122
REMARK   55  A    between atoms: _121  and  _124
REMARK   56  A    between atoms: _124  and  _125
REMARK   57  A    between atoms: _125  and  _232
REMARK   58  A    between atoms: _126  and  _128
REMARK   59  A    between atoms: _128  and  _129
REMARK   60  A    between atoms: _128  and  _131
REMARK   61  A    between atoms: _131  and  _132
REMARK   62  A    between atoms: _132  and  _133
REMARK   63  A    between atoms: _138  and  _140
REMARK   64  A    between atoms: _140  and  _141
REMARK   65  A    between atoms: _143  and  _145
REMARK   66  A    between atoms: _145  and  _146
REMARK   67  A    between atoms: _145  and  _148
REMARK   68  A    between atoms: _148  and  _149
REMARK   69  A    between atoms: _152  and  _154
REMARK   70  A    between atoms: _154  and  _155
REMARK   71  A    between atoms: _154  and  _157
REMARK   72  A    between atoms: _157  and  _158
REMARK   73  A    between atoms: _160  and  _162
REMARK   74  A    between atoms: _162  and  _163
REMARK   75  A    between atoms: _165  and  _167
REMARK   76  A    between atoms: _167  and  _168
REMARK   77  A    between atoms: _170  and  _172
REMARK   78  A    between atoms: _172  and  _173
REMARK   79  A    between atoms: _172  and  _175
REMARK   80  A    between atoms: _178  and  _180
REMARK   81  A    between atoms: _180  and  _181
REMARK   82  A    between atoms: _180  and  _183
REMARK   83  A    between atoms: _183  and  _184
REMARK   84  A    between atoms: _186  and  _188
REMARK   85  A    between atoms: _188  and  _189
REMARK   86  A    between atoms: _188  and  _191
REMARK   87  A    between atoms: _191  and  _192
REMARK   88  A    between atoms: _202  and  _204
REMARK   89  A    between atoms: _204  and  _205
REMARK   90  A    between atoms: _207  and  _209
REMARK   91  A    between atoms: _209  and  _210
REMARK   92  A    between atoms: _209  and  _212
REMARK   93  A    between atoms: _212  and  _213
REMARK   94  A    between atoms: _218  and  _219
REMARK   95  A    between atoms: _221  and  _223
REMARK   96  A    between atoms: _223  and  _224
REMARK   97  A    between atoms: _226  and  _228
REMARK   98  A    between atoms: _228  and  _229
REMARK   99  A    between atoms: _228  and  _231
REMARK  100  A    between atoms: _231  and  _232
REMARK  101  A    between atoms: _233  and  _235
REMARK  102  A    between atoms: _235  and  _236
REMARK  103  A    between atoms: _239  and  _241
REMARK  104  A    between atoms: _241  and  _242
REMARK  105  A    between atoms: _241  and  _244
REMARK  106  A    between atoms: _244  and  _245
REMARK  107  A    between atoms: _245  and  _246
REMARK  108  A    between atoms: _249  and  _251
REMARK  109  A    between atoms: _251  and  _252
REMARK  110  A    between atoms: _251  and  _254
REMARK  111  A    between atoms: _254  and  _255
REMARK  112  A    between atoms: _261  and  _262
REMARK  113  A    between atoms: _267  and  _269
REMARK  114  A    between atoms: _269  and  _270
REMARK  115  A    between atoms: _272  and  _274
REMARK  116  A    between atoms: _274  and  _275
REMARK  117  A    between atoms: _274  and  _277
REMARK  118  A    between atoms: _280  and  _282
REMARK  119  A    between atoms: _282  and  _283
REMARK  120  A    between atoms: _282  and  _285
REMARK  121  A    between atoms: _285  and  _286
REMARK  122  A    between atoms: _291  and  _292
REMARK                            x       y       z     vdW  Elec       q    Type
REMARK                         _______ _______ _______ _____ _____    ______ ____
ROOT
ATOM      1  N   CYS A   2      12.788  10.679  60.484  0.00  0.00    -0.297 N 
ATOM      2  H   CYS A   2      12.330  11.478  60.000  0.00  0.00    +0.150 HD
ATOM      3  C   HIS A   1      13.414   9.757  59.755  0.00  0.00    +0.239 C 
ATOM      4  O   HIS A   1      13.987   8.794  60.249  0.00  0.00    -0.274 OA
ENDROOT
BRANCH   1   5
ATOM      5  CA  CYS A   2      12.724  10.604  61.944  0.00  0.00    +0.149 C 
BRANCH   5   6
ATOM      6  C   CYS A   2      11.450   9.902  62.409  0.00  0.00    +0.228 C 
ATOM      7  O   CYS A   2      11.207   9.780  63.610  0.00  0.00    -0.286 OA
ENDBRANCH   5   6
BRANCH   5   8
ATOM      8  CB  CYS A   2      12.715  11.999  62.550  0.00  0.00    +0.096 C 
BRANCH   8   9
ATOM      9  SG  CYS A   2      14.274  12.902  62.392  0.00  0.00    -0.080 S 
BRANCH   9  10
ATOM     10  SG  HIS A   1      15.232  12.445  64.122  0.00  0.00    -0.080 S 
BRANCH  10  11
ATOM     11  CB  HIS A   1      14.572  13.636  65.330  0.00  0.00    +0.094 C 
BRANCH  11  12
ATOM     12  CA  HIS A   1      15.563  14.199  66.368  0.00  0.00    +0.145 C 
BRANCH  12  13
ATOM     13  N   HIS A   1      15.745  13.281  67.493  0.00  0.00    -0.238 NA
ATOM     14  H   HIS A   1      15.259  13.476  68.391  0.00  0.00    +0.142 HD
ENDBRANCH  12  13
BRANCH  12  15
ATOM     15  C   HIS A   1      15.001  15.498  66.910  0.00  0.00    +0.225 C 
ATOM     16  O   HIS A   1      14.544  15.550  68.060  0.00  0.00    -0.287 OA
ENDBRANCH  12  15
ENDBRANCH  11  12
ENDBRANCH  10  11
ENDBRANCH   9  10
ENDBRANCH   8   9
ENDBRANCH   5   8
ENDBRANCH   1   5
BRANCH   3  17
ATOM     17  CA  HIS A   1      13.368   9.929  58.236  0.00  0.00    +0.151 C 
BRANCH  17  18
ATOM     18  N   HIS A   1      12.446  11.003  57.869  0.00  0.00    -0.238 NA
ATOM     19  H   HIS A   1      12.810  11.895  57.478  0.00  0.00    +0.142 HD
ENDBRANCH  17  18
BRANCH  17  20
ATOM     20  CB  HIS A   1      14.772  10.109  57.611  0.00  0.00    +0.074 C 
BRANCH  20  21
ATOM     21  CG  HIS A   1      15.666  11.070  58.335  0.00  0.00    +0.082 A 
ATOM     22  CD2 HIS A   1      16.438  10.914  59.435  0.00  0.00    +0.115 A 
ATOM     23  NE2 HIS A   1      17.104  12.100  59.635  0.00  0.00    -0.221 NA
ATOM     24  CE1 HIS A   1      16.752  12.957  58.695  0.00  0.00    +0.199 A 
ATOM     25  ND1 HIS A   1      15.883  12.359  57.897  0.00  0.00    -0.227 NA
ENDBRANCH  20  21
ENDBRANCH  17  20
ENDBRANCH   3  17
TORSDOF 13
REMARK  Name = ../refined-set-2016/1utl/1utl_pocket.pdb
REMARK  122 active torsions:
REMARK  status: ('A' for Active; 'I' for Inactive)
REMARK    1  A    between atoms: _1  and  _3
REMARK    2  A    between atoms: _3  and  _4
REMARK    3  A    between atoms: _3  and  _6
REMARK    4  A    between atoms: _9  and  _11
REMARK    5  A    between atoms: _11  and  _12
REMARK    6  A    between atoms: _11  and  _14
REMARK    7  A    between atoms: _14  and  _15
REMARK    8  A    between atoms: _15  and  _39
REMARK    9  A    between atoms: _16  and  _18
REMARK   10  A    between atoms: _18  and  _19
REMARK   11  A    between atoms: _22  and  _24
REMARK   12  A    between atoms: _24  and  _25
REMARK   13  A    between atoms: _24  and  _27
REMARK   14  A    between atoms: _27  and  _28
REMARK   15  A    between atoms: _33  and  _35
REMARK   16  A    between atoms: _35  and  _36
REMARK   17  A    between atoms: _35  and  _38
REMARK   18  A    between atoms: _38  and  _39
REMARK   19  A    between atoms: _40  and  _42
REMARK   20  A    between atoms: _42  and  _43
REMARK   21  A    between atoms: _42  and  _45
REMARK   22  A    between atoms: _45  and  _46
REMARK   23  A    between atoms: _49  and  _51
REMARK   24  A    between atoms: _51  and  _52
REMARK   25  A    between atoms: _51  and  _54
REMARK   26  A    between atoms: _54  and  _55
REMARK   27  A    between atoms: _58  and  _60
REMARK   28  A    between atoms: _60  and  _61
REMARK   29  A    between atoms: _60  and  _63
REMARK   30  A    between atoms: _63  and  _64
REMARK   31  A    between atoms: _69  and  _71
REMARK   32  A    between atoms: _71  and  _72
REMARK   33  A    between atoms: _71  and  _74
REMARK   34  A    between atoms: _74  and  _75
REMARK   35  A    between atoms: _80  and  _81
REMARK   36  A    between atoms: _83  and  _85
REMARK   37  A    between atoms: _85  and  _86
REMARK   38  A    between atoms: _89  and  _91
REMARK   39  A    between atoms: _91  and  _92
REMARK   40  A    between atoms: _91  and  _94
REMARK   41  A    between atoms: _94  and  _95
REMARK   42  A    between atoms: _95  and  _96
REMARK   43  A    between atoms: _96  and  _97
REMARK   44  A    between atoms: _97  and  _98
REMARK   45  A    between atoms: _102  and  _104
REMARK   46  A    between atoms: _104  and  _105
REMARK   47  A    between atoms: _104  and  _107
REMARK   48  A    between atoms: _107  and  _108
REMARK   49  A    between atoms: _111  and  _113
REMARK   50  A    between atoms: _113  and  _114
REMARK   51  A    between atoms: _113  and  _116
REMARK   52  A    between atoms: _116  and  _117
REMARK   53  A    between atoms: _119  and  _121
REMARK   54  A    between atoms: _121  and  _122
REMARK   55  A    between atoms: _121  and  _124
REMARK   56  A    between atoms: _124  and  _125
REMARK   57  A    between atoms: _125  and  _232
REMARK   58  A    between atoms: _126  and  _128
REMARK   59  A    between atoms: _128  and  _129
REMARK   60  A    between atoms: _128  and  _131
REMARK   61  A    between atoms: _131  and  _132
REMARK   62  A    between atoms: _132  and  _133
REMARK   63  A    between atoms: _138  and  _140
REMARK   64  A    between atoms: _140  and  _141
REMARK   65  A    between atoms: _143  and  _145
REMARK   66  A    between atoms: _145  and  _146
REMARK   67  A    between atoms: _145  and  _148
REMARK   68  A    between atoms: _148  and  _149
REMARK   69  A    between atoms: _152  and  _154
REMARK   70  A    between atoms: _154  and  _155
REMARK   71  A    between atoms: _154  and  _157
REMARK   72  A    between atoms: _157  and  _158
REMARK   73  A    between atoms: _160  and  _162
REMARK   74  A    between atoms: _162  and  _163
REMARK   75  A    between atoms: _165  and  _167
REMARK   76  A    between atoms: _167  and  _168
REMARK   77  A    between atoms: _170  and  _172
REMARK   78  A    between atoms: _172  and  _173
REMARK   79  A    between atoms: _172  and  _175
REMARK   80  A    between atoms: _178  and  _180
REMARK   81  A    between atoms: _180  and  _181
REMARK   82  A    between atoms: _180  and  _183
REMARK   83  A    between atoms: _183  and  _184
REMARK   84  A    between atoms: _186  and  _188
REMARK   85  A    between atoms: _188  and  _189
REMARK   86  A    between atoms: _188  and  _191
REMARK   87  A    between atoms: _191  and  _192
REMARK   88  A    between atoms: _202  and  _204
REMARK   89  A    between atoms: _204  and  _205
REMARK   90  A    between atoms: _207  and  _209
REMARK   91  A    between atoms: _209  and  _210
REMARK   92  A    between atoms: _209  and  _212
REMARK   93  A    between atoms: _212  and  _213
REMARK   94  A    between atoms: _218  and  _219
REMARK   95  A    between atoms: _221  and  _223
REMARK   96  A    between atoms: _223  and  _224
REMARK   97  A    between atoms: _226  and  _228
REMARK   98  A    between atoms: _228  and  _229
REMARK   99  A    between atoms: _228  and  _231
REMARK  100  A    between atoms: _231  and  _232
REMARK  101  A    between atoms: _233  and  _235
REMARK  102  A    between atoms: _235  and  _236
REMARK  103  A    between atoms: _239  and  _241
REMARK  104  A    between atoms: _241  and  _242
REMARK  105  A    between atoms: _241  and  _244
REMARK  106  A    between atoms: _244  and  _245
REMARK  107  A    between atoms: _245  and  _246
REMARK  108  A    between atoms: _249  and  _251
REMARK  109  A    between atoms: _251  and  _252
REMARK  110  A    between atoms: _251  and  _254
REMARK  111  A    between atoms: _254  and  _255
REMARK  112  A    between atoms: _261  and  _262
REMARK  113  A    between atoms: _267  and  _269
REMARK  114  A    between atoms: _269  and  _270
REMARK  115  A    between atoms: _272  and  _274
REMARK  116  A    between atoms: _274  and  _275
REMARK  117  A    between atoms: _274  and  _277
REMARK  118  A    between atoms: _280  and  _282
REMARK  119  A    between atoms: _282  and  _283
REMARK  120  A    between atoms: _282  and  _285
REMARK  121  A    between atoms: _285  and  _286
REMARK  122  A    between atoms: _291  and  _292
REMARK                            x       y       z     vdW  Elec       q    Type
REMARK                         _______ _______ _______ _____ _____    ______ ____
ROOT
ATOM      1  CA  ALA A   1      11.913  15.111  59.041  0.00  0.00    +0.133 C 
ATOM      2  CB  ALA A   1      13.441  14.960  59.049  0.00  0.00    +0.027 C 
ENDROOT
BRANCH   1   3
ATOM      3  N   ALA A   1      11.482  15.861  60.222  0.00  0.00    -0.239 NA
ATOM      4  H   ALA A   1      12.001  15.737  61.115  0.00  0.00    +0.142 HD
ENDBRANCH   1   3
BRANCH   1   5
ATOM      5  C   ALA A   1      11.260  13.740  59.009  0.00  0.00    +0.224 C 
ATOM      6  O   ALA A   1      11.203  13.054  60.025  0.00  0.00    -0.287 OA
ENDBRANCH   1   5
TORSDOF 2
REMARK  Name = ../refined-set-2016/1utl/1utl_pocket.pdb
REMARK  122 active torsions:
REMARK  status: ('A' for Active; 'I' for Inactive)
REMARK    1  A    between atoms: _1  and  _3
REMARK    2  A    between atoms: _3  and  _4
REMARK    3  A    between atoms: _3  and  _6
REMARK    4  A    between atoms: _9  and  _11
REMARK    5  A    between atoms: _11  and  _12
REMARK    6  A    between atoms: _11  and  _14
REMARK    7  A    between atoms: _14  and  _15
REMARK    8  A    between atoms: _15  and  _39
REMARK    9  A    between atoms: _16  and  _18
REMARK   10  A    between atoms: _18  and  _19
REMARK   11  A    between atoms: _22  and  _24
REMARK   12  A    between atoms: _24  and  _25
REMARK   13  A    between atoms: _24  and  _27
REMARK   14  A    between atoms: _27  and  _28
REMARK   15  A    between atoms: _33  and  _35
REMARK   16  A    between atoms: _35  and  _36
REMARK   17  A    between atoms: _35  and  _38
REMARK   18  A    between atoms: _38  and  _39
REMARK   19  A    between atoms: _40  and  _42
REMARK   20  A    between atoms: _42  and  _43
REMARK   21  A    between atoms: _42  and  _45
REMARK   22  A    between atoms: _45  and  _46
REMARK   23  A    between atoms: _49  and  _51
REMARK   24  A    between atoms: _51  and  _52
REMARK   25  A    between atoms: _51  and  _54
REMARK   26  A    between atoms: _54  and  _55
REMARK   27  A    between atoms: _58  and  _60
REMARK   28  A    between atoms: _60  and  _61
REMARK   29  A    between atoms: _60  and  _63
REMARK   30  A    between atoms: _63  and  _64
REMARK   31  A    between atoms: _69  and  _71
REMARK   32  A    between atoms: _71  and  _72
REMARK   33  A    between atoms: _71  and  _74
REMARK   34  A    between atoms: _74  and  _75
REMARK   35  A    between atoms: _80  and  _81
REMARK   36  A    between atoms: _83  and  _85
REMARK   37  A    between atoms: _85  and  _86
REMARK   38  A    between atoms: _89  and  _91
REMARK   39  A    between atoms: _91  and  _92
REMARK   40  A    between atoms: _91  and  _94
REMARK   41  A    between atoms: _94  and  _95
REMARK   42  A    between atoms: _95  and  _96
REMARK   43  A    between atoms: _96  and  _97
REMARK   44  A    between atoms: _97  and  _98
REMARK   45  A    between atoms: _102  and  _104
REMARK   46  A    between atoms: _104  and  _105
REMARK   47  A    between atoms: _104  and  _107
REMARK   48  A    between atoms: _107  and  _108
REMARK   49  A    between atoms: _111  and  _113
REMARK   50  A    between atoms: _113  and  _114
REMARK   51  A    between atoms: _113  and  _116
REMARK   52  A    between atoms: _116  and  _117
REMARK   53  A    between atoms: _119  and  _121
REMARK   54  A    between atoms: _121  and  _122
REMARK   55  A    between atoms: _121  and  _124
REMARK   56  A    between atoms: _124  and  _125
REMARK   57  A    between atoms: _125  and  _232
REMARK   58  A    between atoms: _126  and  _128
REMARK   59  A    between atoms: _128  and  _129
REMARK   60  A    between atoms: _128  and  _131
REMARK   61  A    between atoms: _131  and  _132
REMARK   62  A    between atoms: _132  and  _133
REMARK   63  A    between atoms: _138  and  _140
REMARK   64  A    between atoms: _140  and  _141
REMARK   65  A    between atoms: _143  and  _145
REMARK   66  A    between atoms: _145  and  _146
REMARK   67  A    between atoms: _145  and  _148
REMARK   68  A    between atoms: _148  and  _149
REMARK   69  A    between atoms: _152  and  _154
REMARK   70  A    between atoms: _154  and  _155
REMARK   71  A    between atoms: _154  and  _157
REMARK   72  A    between atoms: _157  and  _158
REMARK   73  A    between atoms: _160  and  _162
REMARK   74  A    between atoms: _162  and  _163
REMARK   75  A    between atoms: _165  and  _167
REMARK   76  A    between atoms: _167  and  _168
REMARK   77  A    between atoms: _170  and  _172
REMARK   78  A    between atoms: _172  and  _173
REMARK   79  A    between atoms: _172  and  _175
REMARK   80  A    between atoms: _178  and  _180
REMARK   81  A    between atoms: _180  and  _181
REMARK   82  A    between atoms: _180  and  _183
REMARK   83  A    between atoms: _183  and  _184
REMARK   84  A    between atoms: _186  and  _188
REMARK   85  A    between atoms: _188  and  _189
REMARK   86  A    between atoms: _188  and  _191
REMARK   87  A    between atoms: _191  and  _192
REMARK   88  A    between atoms: _202  and  _204
REMARK   89  A    between atoms: _204  and  _205
REMARK   90  A    between atoms: _207  and  _209
REMARK   91  A    between atoms: _209  and  _210
REMARK   92  A    between atoms: _209  and  _212
REMARK   93  A    between atoms: _212  and  _213
REMARK   94  A    between atoms: _218  and  _219
REMARK   95  A    between atoms: _221  and  _223
REMARK   96  A    between atoms: _223  and  _224
REMARK   97  A    between atoms: _226  and  _228
REMARK   98  A    between atoms: _228  and  _229
REMARK   99  A    between atoms: _228  and  _231
REMARK  100  A    between atoms: _231  and  _232
REMARK  101  A    between atoms: _233  and  _235
REMARK  102  A    between atoms: _235  and  _236
REMARK  103  A    between atoms: _239  and  _241
REMARK  104  A    between atoms: _241  and  _242
REMARK  105  A    between atoms: _241  and  _244
REMARK  106  A    between atoms: _244  and  _245
REMARK  107  A    between atoms: _245  and  _246
REMARK  108  A    between atoms: _249  and  _251
REMARK  109  A    between atoms: _251  and  _252
REMARK  110  A    between atoms: _251  and  _254
REMARK  111  A    between atoms: _254  and  _255
REMARK  112  A    between atoms: _261  and  _262
REMARK  113  A    between atoms: _267  and  _269
REMARK  114  A    between atoms: _269  and  _270
REMARK  115  A    between atoms: _272  and  _274
REMARK  116  A    between atoms: _274  and  _275
REMARK  117  A    between atoms: _274  and  _277
REMARK  118  A    between atoms: _280  and  _282
REMARK  119  A    between atoms: _282  and  _283
REMARK  120  A    between atoms: _282  and  _285
REMARK  121  A    between atoms: _285  and  _286
REMARK  122  A    between atoms: _291  and  _292
REMARK                            x       y       z     vdW  Elec       q    Type
REMARK                         _______ _______ _______ _____ _____    ______ ____
ROOT
ATOM      1  CA  ILE A   1      15.451  10.504  51.457  0.00  0.00    +0.133 C 
ENDROOT
BRANCH   1   2
ATOM      2  N   ILE A   1      15.785   9.495  50.452  0.00  0.00    -0.239 NA
ATOM      3  H   ILE A   1      15.375   8.544  50.547  0.00  0.00    +0.142 HD
ENDBRANCH   1   2
BRANCH   1   4
ATOM      4  CB  ILE A   1      16.707  10.929  52.271  0.00  0.00    +0.023 C 
ATOM      5  CG2 ILE A   1      16.288  11.481  53.638  0.00  0.00    +0.002 C 
BRANCH   4   6
ATOM      6  CG1 ILE A   1      17.633   9.728  52.484  0.00  0.00    +0.002 C 
ATOM      7  CD1 ILE A   1      18.959  10.084  53.122  0.00  0.00    +0.000 C 
ENDBRANCH   4   6
ENDBRANCH   1   4
BRANCH   1   8
ATOM      8  C   ILE A   1      14.795  11.744  50.830  0.00  0.00    +0.224 C 
ATOM      9  O   ILE A   1      15.024  12.876  51.262  0.00  0.00    -0.287 OA
ENDBRANCH   1   8
TORSDOF 4
REMARK  Name = ../refined-set-2016/1utl/1utl_pocket.pdb
REMARK  122 active torsions:
REMARK  status: ('A' for Active; 'I' for Inactive)
REMARK    1  A    between atoms: _1  and  _3
REMARK    2  A    between atoms: _3  and  _4
REMARK    3  A    between atoms: _3  and  _6
REMARK    4  A    between atoms: _9  and  _11
REMARK    5  A    between atoms: _11  and  _12
REMARK    6  A    between atoms: _11  and  _14
REMARK    7  A    between atoms: _14  and  _15
REMARK    8  A    between atoms: _15  and  _39
REMARK    9  A    between atoms: _16  and  _18
REMARK   10  A    between atoms: _18  and  _19
REMARK   11  A    between atoms: _22  and  _24
REMARK   12  A    between atoms: _24  and  _25
REMARK   13  A    between atoms: _24  and  _27
REMARK   14  A    between atoms: _27  and  _28
REMARK   15  A    between atoms: _33  and  _35
REMARK   16  A    between atoms: _35  and  _36
REMARK   17  A    between atoms: _35  and  _38
REMARK   18  A    between atoms: _38  and  _39
REMARK   19  A    between atoms: _40  and  _42
REMARK   20  A    between atoms: _42  and  _43
REMARK   21  A    between atoms: _42  and  _45
REMARK   22  A    between atoms: _45  and  _46
REMARK   23  A    between atoms: _49  and  _51
REMARK   24  A    between atoms: _51  and  _52
REMARK   25  A    between atoms: _51  and  _54
REMARK   26  A    between atoms: _54  and  _55
REMARK   27  A    between atoms: _58  and  _60
REMARK   28  A    between atoms: _60  and  _61
REMARK   29  A    between atoms: _60  and  _63
REMARK   30  A    between atoms: _63  and  _64
REMARK   31  A    between atoms: _69  and  _71
REMARK   32  A    between atoms: _71  and  _72
REMARK   33  A    between atoms: _71  and  _74
REMARK   34  A    between atoms: _74  and  _75
REMARK   35  A    between atoms: _80  and  _81
REMARK   36  A    between atoms: _83  and  _85
REMARK   37  A    between atoms: _85  and  _86
REMARK   38  A    between atoms: _89  and  _91
REMARK   39  A    between atoms: _91  and  _92
REMARK   40  A    between atoms: _91  and  _94
REMARK   41  A    between atoms: _94  and  _95
REMARK   42  A    between atoms: _95  and  _96
REMARK   43  A    between atoms: _96  and  _97
REMARK   44  A    between atoms: _97  and  _98
REMARK   45  A    between atoms: _102  and  _104
REMARK   46  A    between atoms: _104  and  _105
REMARK   47  A    between atoms: _104  and  _107
REMARK   48  A    between atoms: _107  and  _108
REMARK   49  A    between atoms: _111  and  _113
REMARK   50  A    between atoms: _113  and  _114
REMARK   51  A    between atoms: _113  and  _116
REMARK   52  A    between atoms: _116  and  _117
REMARK   53  A    between atoms: _119  and  _121
REMARK   54  A    between atoms: _121  and  _122
REMARK   55  A    between atoms: _121  and  _124
REMARK   56  A    between atoms: _124  and  _125
REMARK   57  A    between atoms: _125  and  _232
REMARK   58  A    between atoms: _126  and  _128
REMARK   59  A    between atoms: _128  and  _129
REMARK   60  A    between atoms: _128  and  _131
REMARK   61  A    between atoms: _131  and  _132
REMARK   62  A    between atoms: _132  and  _133
REMARK   63  A    between atoms: _138  and  _140
REMARK   64  A    between atoms: _140  and  _141
REMARK   65  A    between atoms: _143  and  _145
REMARK   66  A    between atoms: _145  and  _146
REMARK   67  A    between atoms: _145  and  _148
REMARK   68  A    between atoms: _148  and  _149
REMARK   69  A    between atoms: _152  and  _154
REMARK   70  A    between atoms: _154  and  _155
REMARK   71  A    between atoms: _154  and  _157
REMARK   72  A    between atoms: _157  and  _158
REMARK   73  A    between atoms: _160  and  _162
REMARK   74  A    between atoms: _162  and  _163
REMARK   75  A    between atoms: _165  and  _167
REMARK   76  A    between atoms: _167  and  _168
REMARK   77  A    between atoms: _170  and  _172
REMARK   78  A    between atoms: _172  and  _173
REMARK   79  A    between atoms: _172  and  _175
REMARK   80  A    between atoms: _178  and  _180
REMARK   81  A    between atoms: _180  and  _181
REMARK   82  A    between atoms: _180  and  _183
REMARK   83  A    between atoms: _183  and  _184
REMARK   84  A    between atoms: _186  and  _188
REMARK   85  A    between atoms: _188  and  _189
REMARK   86  A    between atoms: _188  and  _191
REMARK   87  A    between atoms: _191  and  _192
REMARK   88  A    between atoms: _202  and  _204
REMARK   89  A    between atoms: _204  and  _205
REMARK   90  A    between atoms: _207  and  _209
REMARK   91  A    between atoms: _209  and  _210
REMARK   92  A    between atoms: _209  and  _212
REMARK   93  A    between atoms: _212  and  _213
REMARK   94  A    between atoms: _218  and  _219
REMARK   95  A    between atoms: _221  and  _223
REMARK   96  A    between atoms: _223  and  _224
REMARK   97  A    between atoms: _226  and  _228
REMARK   98  A    between atoms: _228  and  _229
REMARK   99  A    between atoms: _228  and  _231
REMARK  100  A    between atoms: _231  and  _232
REMARK  101  A    between atoms: _233  and  _235
REMARK  102  A    between atoms: _235  and  _236
REMARK  103  A    between atoms: _239  and  _241
REMARK  104  A    between atoms: _241  and  _242
REMARK  105  A    between atoms: _241  and  _244
REMARK  106  A    between atoms: _244  and  _245
REMARK  107  A    between atoms: _245  and  _246
REMARK  108  A    between atoms: _249  and  _251
REMARK  109  A    between atoms: _251  and  _252
REMARK  110  A    between atoms: _251  and  _254
REMARK  111  A    between atoms: _254  and  _255
REMARK  112  A    between atoms: _261  and  _262
REMARK  113  A    between atoms: _267  and  _269
REMARK  114  A    between atoms: _269  and  _270
REMARK  115  A    between atoms: _272  and  _274
REMARK  116  A    between atoms: _274  and  _275
REMARK  117  A    between atoms: _274  and  _277
REMARK  118  A    between atoms: _280  and  _282
REMARK  119  A    between atoms: _282  and  _283
REMARK  120  A    between atoms: _282  and  _285
REMARK  121  A    between atoms: _285  and  _286
REMARK  122  A    between atoms: _291  and  _292
REMARK                            x       y       z     vdW  Elec       q    Type
REMARK                         _______ _______ _______ _____ _____    ______ ____
ROOT
ATOM      1  CA  ASP A   1      11.893  14.457  53.889  0.00  0.00    +0.144 C 
ENDROOT
BRANCH   1   2
ATOM      2  N   ASP A   1      11.581  14.756  52.504  0.00  0.00    -0.239 NA
ATOM      3  H   ASP A   1      12.271  15.300  51.947  0.00  0.00    +0.142 HD
ENDBRANCH   1   2
BRANCH   1   4
ATOM      4  C   ASP A   1      11.216  15.413  54.874  0.00  0.00    +0.225 C 
ATOM      5  O   ASP A   1      11.877  16.163  55.606  0.00  0.00    -0.287 OA
ENDBRANCH   1   4
BRANCH   1   6
ATOM      6  CB  ASP A   1      13.420  14.449  54.057  0.00  0.00    +0.139 C 
BRANCH   6   7
ATOM      7  CG  ASP A   1      13.869  13.770  55.333  0.00  0.00    +0.367 C 
ATOM      8  OD2 ASP A   1      13.072  13.037  55.951  0.00  0.00    -0.246 OA
ATOM      9  OD1 ASP A   1      15.038  13.961  55.716  0.00  0.00    -0.246 OA
ENDBRANCH   6   7
ENDBRANCH   1   6
TORSDOF 4
REMARK  Name = ../refined-set-2016/1utl/1utl_pocket.pdb
REMARK  122 active torsions:
REMARK  status: ('A' for Active; 'I' for Inactive)
REMARK    1  A    between atoms: _1  and  _3
REMARK    2  A    between atoms: _3  and  _4
REMARK    3  A    between atoms: _3  and  _6
REMARK    4  A    between atoms: _9  and  _11
REMARK    5  A    between atoms: _11  and  _12
REMARK    6  A    between atoms: _11  and  _14
REMARK    7  A    between atoms: _14  and  _15
REMARK    8  A    between atoms: _15  and  _39
REMARK    9  A    between atoms: _16  and  _18
REMARK   10  A    between atoms: _18  and  _19
REMARK   11  A    between atoms: _22  and  _24
REMARK   12  A    between atoms: _24  and  _25
REMARK   13  A    between atoms: _24  and  _27
REMARK   14  A    between atoms: _27  and  _28
REMARK   15  A    between atoms: _33  and  _35
REMARK   16  A    between atoms: _35  and  _36
REMARK   17  A    between atoms: _35  and  _38
REMARK   18  A    between atoms: _38  and  _39
REMARK   19  A    between atoms: _40  and  _42
REMARK   20  A    between atoms: _42  and  _43
REMARK   21  A    between atoms: _42  and  _45
REMARK   22  A    between atoms: _45  and  _46
REMARK   23  A    between atoms: _49  and  _51
REMARK   24  A    between atoms: _51  and  _52
REMARK   25  A    between atoms: _51  and  _54
REMARK   26  A    between atoms: _54  and  _55
REMARK   27  A    between atoms: _58  and  _60
REMARK   28  A    between atoms: _60  and  _61
REMARK   29  A    between atoms: _60  and  _63
REMARK   30  A    between atoms: _63  and  _64
REMARK   31  A    between atoms: _69  and  _71
REMARK   32  A    between atoms: _71  and  _72
REMARK   33  A    between atoms: _71  and  _74
REMARK   34  A    between atoms: _74  and  _75
REMARK   35  A    between atoms: _80  and  _81
REMARK   36  A    between atoms: _83  and  _85
REMARK   37  A    between atoms: _85  and  _86
REMARK   38  A    between atoms: _89  and  _91
REMARK   39  A    between atoms: _91  and  _92
REMARK   40  A    between atoms: _91  and  _94
REMARK   41  A    between atoms: _94  and  _95
REMARK   42  A    between atoms: _95  and  _96
REMARK   43  A    between atoms: _96  and  _97
REMARK   44  A    between atoms: _97  and  _98
REMARK   45  A    between atoms: _102  and  _104
REMARK   46  A    between atoms: _104  and  _105
REMARK   47  A    between atoms: _104  and  _107
REMARK   48  A    between atoms: _107  and  _108
REMARK   49  A    between atoms: _111  and  _113
REMARK   50  A    between atoms: _113  and  _114
REMARK   51  A    between atoms: _113  and  _116
REMARK   52  A    between atoms: _116  and  _117
REMARK   53  A    between atoms: _119  and  _121
REMARK   54  A    between atoms: _121  and  _122
REMARK   55  A    between atoms: _121  and  _124
REMARK   56  A    between atoms: _124  and  _125
REMARK   57  A    between atoms: _125  and  _232
REMARK   58  A    between atoms: _126  and  _128
REMARK   59  A    between atoms: _128  and  _129
REMARK   60  A    between atoms: _128  and  _131
REMARK   61  A    between atoms: _131  and  _132
REMARK   62  A    between atoms: _132  and  _133
REMARK   63  A    between atoms: _138  and  _140
REMARK   64  A    between atoms: _140  and  _141
REMARK   65  A    between atoms: _143  and  _145
REMARK   66  A    between atoms: _145  and  _146
REMARK   67  A    between atoms: _145  and  _148
REMARK   68  A    between atoms: _148  and  _149
REMARK   69  A    between atoms: _152  and  _154
REMARK   70  A    between atoms: _154  and  _155
REMARK   71  A    between atoms: _154  and  _157
REMARK   72  A    between atoms: _157  and  _158
REMARK   73  A    between atoms: _160  and  _162
REMARK   74  A    between atoms: _162  and  _163
REMARK   75  A    between atoms: _165  and  _167
REMARK   76  A    between atoms: _167  and  _168
REMARK   77  A    between atoms: _170  and  _172
REMARK   78  A    between atoms: _172  and  _173
REMARK   79  A    between atoms: _172  and  _175
REMARK   80  A    between atoms: _178  and  _180
REMARK   81  A    between atoms: _180  and  _181
REMARK   82  A    between atoms: _180  and  _183
REMARK   83  A    between atoms: _183  and  _184
REMARK   84  A    between atoms: _186  and  _188
REMARK   85  A    between atoms: _188  and  _189
REMARK   86  A    between atoms: _188  and  _191
REMARK   87  A    between atoms: _191  and  _192
REMARK   88  A    between atoms: _202  and  _204
REMARK   89  A    between atoms: _204  and  _205
REMARK   90  A    between atoms: _207  and  _209
REMARK   91  A    between atoms: _209  and  _210
REMARK   92  A    between atoms: _209  and  _212
REMARK   93  A    between atoms: _212  and  _213
REMARK   94  A    between atoms: _218  and  _219
REMARK   95  A    between atoms: _221  and  _223
REMARK   96  A    between atoms: _223  and  _224
REMARK   97  A    between atoms: _226  and  _228
REMARK   98  A    between atoms: _228  and  _229
REMARK   99  A    between atoms: _228  and  _231
REMARK  100  A    between atoms: _231  and  _232
REMARK  101  A    between atoms: _233  and  _235
REMARK  102  A    between atoms: _235  and  _236
REMARK  103  A    between atoms: _239  and  _241
REMARK  104  A    between atoms: _241  and  _242
REMARK  105  A    between atoms: _241  and  _244
REMARK  106  A    between atoms: _244  and  _245
REMARK  107  A    between atoms: _245  and  _246
REMARK  108  A    between atoms: _249  and  _251
REMARK  109  A    between atoms: _251  and  _252
REMARK  110  A    between atoms: _251  and  _254
REMARK  111  A    between atoms: _254  and  _255
REMARK  112  A    between atoms: _261  and  _262
REMARK  113  A    between atoms: _267  and  _269
REMARK  114  A    between atoms: _269  and  _270
REMARK  115  A    between atoms: _272  and  _274
REMARK  116  A    between atoms: _274  and  _275
REMARK  117  A    between atoms: _274  and  _277
REMARK  118  A    between atoms: _280  and  _282
REMARK  119  A    between atoms: _282  and  _283
REMARK  120  A    between atoms: _282  and  _285
REMARK  121  A    between atoms: _285  and  _286
REMARK  122  A    between atoms: _291  and  _292
REMARK                            x       y       z     vdW  Elec       q    Type
REMARK                         _______ _______ _______ _____ _____    ______ ____
ROOT
ATOM      1  CB  ASN A   1      27.269  14.669  66.315  0.00  0.00    +0.110 C 
ENDROOT
BRANCH   1   2
ATOM      2  CG  ASN A   1      27.066  13.178  66.589  0.00  0.00    +0.221 C 
ATOM      3  OD1 ASN A   1      26.346  12.759  67.513  0.00  0.00    -0.275 OA
ATOM      4  ND2 ASN A   1      27.703  12.360  65.752  0.00  0.00    -0.329 N 
ATOM      5 HD21 ASN A   1      27.608  11.330  65.858  0.00  0.00    +0.145 HD
ATOM      6 HD22 ASN A   1      28.296  12.752  64.992  0.00  0.00    +0.145 HD
ENDBRANCH   1   2
BRANCH   1   7
ATOM      7  CA  ASN A   1      26.725  15.593  67.423  0.00  0.00    +0.142 C 
BRANCH   7   8
ATOM      8  N   ASN A   1      25.264  15.729  67.326  0.00  0.00    -0.239 NA
ATOM      9  H   ASN A   1      24.745  15.075  66.706  0.00  0.00    +0.142 HD
ENDBRANCH   7   8
BRANCH   7  10
ATOM     10  C   ASN A   1      27.374  16.966  67.207  0.00  0.00    +0.225 C 
ATOM     11  O   ASN A   1      27.010  17.693  66.267  0.00  0.00    -0.287 OA
ENDBRANCH   7  10
ENDBRANCH   1   7
TORSDOF 4
REMARK  Name = ../refined-set-2016/1utl/1utl_pocket.pdb
REMARK  122 active torsions:
REMARK  status: ('A' for Active; 'I' for Inactive)
REMARK    1  A    between atoms: _1  and  _3
REMARK    2  A    between atoms: _3  and  _4
REMARK    3  A    between atoms: _3  and  _6
REMARK    4  A    between atoms: _9  and  _11
REMARK    5  A    between atoms: _11  and  _12
REMARK    6  A    between atoms: _11  and  _14
REMARK    7  A    between atoms: _14  and  _15
REMARK    8  A    between atoms: _15  and  _39
REMARK    9  A    between atoms: _16  and  _18
REMARK   10  A    between atoms: _18  and  _19
REMARK   11  A    between atoms: _22  and  _24
REMARK   12  A    between atoms: _24  and  _25
REMARK   13  A    between atoms: _24  and  _27
REMARK   14  A    between atoms: _27  and  _28
REMARK   15  A    between atoms: _33  and  _35
REMARK   16  A    between atoms: _35  and  _36
REMARK   17  A    between atoms: _35  and  _38
REMARK   18  A    between atoms: _38  and  _39
REMARK   19  A    between atoms: _40  and  _42
REMARK   20  A    between atoms: _42  and  _43
REMARK   21  A    between atoms: _42  and  _45
REMARK   22  A    between atoms: _45  and  _46
REMARK   23  A    between atoms: _49  and  _51
REMARK   24  A    between atoms: _51  and  _52
REMARK   25  A    between atoms: _51  and  _54
REMARK   26  A    between atoms: _54  and  _55
REMARK   27  A    between atoms: _58  and  _60
REMARK   28  A    between atoms: _60  and  _61
REMARK   29  A    between atoms: _60  and  _63
REMARK   30  A    between atoms: _63  and  _64
REMARK   31  A    between atoms: _69  and  _71
REMARK   32  A    between atoms: _71  and  _72
REMARK   33  A    between atoms: _71  and  _74
REMARK   34  A    between atoms: _74  and  _75
REMARK   35  A    between atoms: _80  and  _81
REMARK   36  A    between atoms: _83  and  _85
REMARK   37  A    between atoms: _85  and  _86
REMARK   38  A    between atoms: _89  and  _91
REMARK   39  A    between atoms: _91  and  _92
REMARK   40  A    between atoms: _91  and  _94
REMARK   41  A    between atoms: _94  and  _95
REMARK   42  A    between atoms: _95  and  _96
REMARK   43  A    between atoms: _96  and  _97
REMARK   44  A    between atoms: _97  and  _98
REMARK   45  A    between atoms: _102  and  _104
REMARK   46  A    between atoms: _104  and  _105
REMARK   47  A    between atoms: _104  and  _107
REMARK   48  A    between atoms: _107  and  _108
REMARK   49  A    between atoms: _111  and  _113
REMARK   50  A    between atoms: _113  and  _114
REMARK   51  A    between atoms: _113  and  _116
REMARK   52  A    between atoms: _116  and  _117
REMARK   53  A    between atoms: _119  and  _121
REMARK   54  A    between atoms: _121  and  _122
REMARK   55  A    between atoms: _121  and  _124
REMARK   56  A    between atoms: _124  and  _125
REMARK   57  A    between atoms: _125  and  _232
REMARK   58  A    between atoms: _126  and  _128
REMARK   59  A    between atoms: _128  and  _129
REMARK   60  A    between atoms: _128  and  _131
REMARK   61  A    between atoms: _131  and  _132
REMARK   62  A    between atoms: _132  and  _133
REMARK   63  A    between atoms: _138  and  _140
REMARK   64  A    between atoms: _140  and  _141
REMARK   65  A    between atoms: _143  and  _145
REMARK   66  A    between atoms: _145  and  _146
REMARK   67  A    between atoms: _145  and  _148
REMARK   68  A    between atoms: _148  and  _149
REMARK   69  A    between atoms: _152  and  _154
REMARK   70  A    between atoms: _154  and  _155
REMARK   71  A    between atoms: _154  and  _157
REMARK   72  A    between atoms: _157  and  _158
REMARK   73  A    between atoms: _160  and  _162
REMARK   74  A    between atoms: _162  and  _163
REMARK   75  A    between atoms: _165  and  _167
REMARK   76  A    between atoms: _167  and  _168
REMARK   77  A    between atoms: _170  and  _172
REMARK   78  A    between atoms: _172  and  _173
REMARK   79  A    between atoms: _172  and  _175
REMARK   80  A    between atoms: _178  and  _180
REMARK   81  A    between atoms: _180  and  _181
REMARK   82  A    between atoms: _180  and  _183
REMARK   83  A    between atoms: _183  and  _184
REMARK   84  A    between atoms: _186  and  _188
REMARK   85  A    between atoms: _188  and  _189
REMARK   86  A    between atoms: _188  and  _191
REMARK   87  A    between atoms: _191  and  _192
REMARK   88  A    between atoms: _202  and  _204
REMARK   89  A    between atoms: _204  and  _205
REMARK   90  A    between atoms: _207  and  _209
REMARK   91  A    between atoms: _209  and  _210
REMARK   92  A    between atoms: _209  and  _212
REMARK   93  A    between atoms: _212  and  _213
REMARK   94  A    between atoms: _218  and  _219
REMARK   95  A    between atoms: _221  and  _223
REMARK   96  A    between atoms: _223  and  _224
REMARK   97  A    between atoms: _226  and  _228
REMARK   98  A    between atoms: _228  and  _229
REMARK   99  A    between atoms: _228  and  _231
REMARK  100  A    between atoms: _231  and  _232
REMARK  101  A    between atoms: _233  and  _235
REMARK  102  A    between atoms: _235  and  _236
REMARK  103  A    between atoms: _239  and  _241
REMARK  104  A    between atoms: _241  and  _242
REMARK  105  A    between atoms: _241  and  _244
REMARK  106  A    between atoms: _244  and  _245
REMARK  107  A    between atoms: _245  and  _246
REMARK  108  A    between atoms: _249  and  _251
REMARK  109  A    between atoms: _251  and  _252
REMARK  110  A    between atoms: _251  and  _254
REMARK  111  A    between atoms: _254  and  _255
REMARK  112  A    between atoms: _261  and  _262
REMARK  113  A    between atoms: _267  and  _269
REMARK  114  A    between atoms: _269  and  _270
REMARK  115  A    between atoms: _272  and  _274
REMARK  116  A    between atoms: _274  and  _275
REMARK  117  A    between atoms: _274  and  _277
REMARK  118  A    between atoms: _280  and  _282
REMARK  119  A    between atoms: _282  and  _283
REMARK  120  A    between atoms: _282  and  _285
REMARK  121  A    between atoms: _285  and  _286
REMARK  122  A    between atoms: _291  and  _292
REMARK                            x       y       z     vdW  Elec       q    Type
REMARK                         _______ _______ _______ _____ _____    ______ ____
ROOT
ATOM      1  CG  TYR A   1      25.419  16.295  47.610  0.00  0.00    -0.020 A 
ATOM      2  CD2 TYR A   1      25.076  17.450  48.306  0.00  0.00    -0.001 A 
ATOM      3  CE2 TYR A   1      25.552  17.683  49.598  0.00  0.00    +0.036 A 
ATOM      4  CZ  TYR A   1      26.383  16.757  50.206  0.00  0.00    +0.134 A 
ATOM      5  CE1 TYR A   1      26.748  15.609  49.531  0.00  0.00    +0.036 A 
ATOM      6  CD1 TYR A   1      26.265  15.382  48.238  0.00  0.00    -0.001 A 
ENDROOT
BRANCH   4   7
ATOM      7  OH  TYR A   1      26.834  16.948  51.497  0.00  0.00    -0.506 OA
ATOM      8  HH  TYR A   1      26.059  17.002  52.111  0.00  0.00    +0.292 HD
ENDBRANCH   4   7
BRANCH   1   9
ATOM      9  CB  TYR A   1      24.854  16.015  46.232  0.00  0.00    +0.051 C 
BRANCH   9  10
ATOM     10  CA  TYR A   1      25.896  16.055  45.105  0.00  0.00    +0.137 C 
BRANCH  10  11
ATOM     11  N   TYR A   1      26.599  17.338  45.129  0.00  0.00    -0.239 NA
ATOM     12  H   TYR A   1      26.105  18.195  44.807  0.00  0.00    +0.142 HD
ENDBRANCH  10  11
BRANCH  10  13
ATOM     13  C   TYR A   1      25.236  15.860  43.739  0.00  0.00    +0.224 C 
ATOM     14  O   TYR A   1      24.006  15.889  43.613  0.00  0.00    -0.287 OA
ENDBRANCH  10  13
ENDBRANCH   9  10
ENDBRANCH   1   9
TORSDOF 5
REMARK  Name = ../refined-set-2016/1utl/1utl_pocket.pdb
REMARK  122 active torsions:
REMARK  status: ('A' for Active; 'I' for Inactive)
REMARK    1  A    between atoms: _1  and  _3
REMARK    2  A    between atoms: _3  and  _4
REMARK    3  A    between atoms: _3  and  _6
REMARK    4  A    between atoms: _9  and  _11
REMARK    5  A    between atoms: _11  and  _12
REMARK    6  A    between atoms: _11  and  _14
REMARK    7  A    between atoms: _14  and  _15
REMARK    8  A    between atoms: _15  and  _39
REMARK    9  A    between atoms: _16  and  _18
REMARK   10  A    between atoms: _18  and  _19
REMARK   11  A    between atoms: _22  and  _24
REMARK   12  A    between atoms: _24  and  _25
REMARK   13  A    between atoms: _24  and  _27
REMARK   14  A    between atoms: _27  and  _28
REMARK   15  A    between atoms: _33  and  _35
REMARK   16  A    between atoms: _35  and  _36
REMARK   17  A    between atoms: _35  and  _38
REMARK   18  A    between atoms: _38  and  _39
REMARK   19  A    between atoms: _40  and  _42
REMARK   20  A    between atoms: _42  and  _43
REMARK   21  A    between atoms: _42  and  _45
REMARK   22  A    between atoms: _45  and  _46
REMARK   23  A    between atoms: _49  and  _51
REMARK   24  A    between atoms: _51  and  _52
REMARK   25  A    between atoms: _51  and  _54
REMARK   26  A    between atoms: _54  and  _55
REMARK   27  A    between atoms: _58  and  _60
REMARK   28  A    between atoms: _60  and  _61
REMARK   29  A    between atoms: _60  and  _63
REMARK   30  A    between atoms: _63  and  _64
REMARK   31  A    between atoms: _69  and  _71
REMARK   32  A    between atoms: _71  and  _72
REMARK   33  A    between atoms: _71  and  _74
REMARK   34  A    between atoms: _74  and  _75
REMARK   35  A    between atoms: _80  and  _81
REMARK   36  A    between atoms: _83  and  _85
REMARK   37  A    between atoms: _85  and  _86
REMARK   38  A    between atoms: _89  and  _91
REMARK   39  A    between atoms: _91  and  _92
REMARK   40  A    between atoms: _91  and  _94
REMARK   41  A    between atoms: _94  and  _95
REMARK   42  A    between atoms: _95  and  _96
REMARK   43  A    between atoms: _96  and  _97
REMARK   44  A    between atoms: _97  and  _98
REMARK   45  A    between atoms: _102  and  _104
REMARK   46  A    between atoms: _104  and  _105
REMARK   47  A    between atoms: _104  and  _107
REMARK   48  A    between atoms: _107  and  _108
REMARK   49  A    between atoms: _111  and  _113
REMARK   50  A    between atoms: _113  and  _114
REMARK   51  A    between atoms: _113  and  _116
REMARK   52  A    between atoms: _116  and  _117
REMARK   53  A    between atoms: _119  and  _121
REMARK   54  A    between atoms: _121  and  _122
REMARK   55  A    between atoms: _121  and  _124
REMARK   56  A    between atoms: _124  and  _125
REMARK   57  A    between atoms: _125  and  _232
REMARK   58  A    between atoms: _126  and  _128
REMARK   59  A    between atoms: _128  and  _129
REMARK   60  A    between atoms: _128  and  _131
REMARK   61  A    between atoms: _131  and  _132
REMARK   62  A    between atoms: _132  and  _133
REMARK   63  A    between atoms: _138  and  _140
REMARK   64  A    between atoms: _140  and  _141
REMARK   65  A    between atoms: _143  and  _145
REMARK   66  A    between atoms: _145  and  _146
REMARK   67  A    between atoms: _145  and  _148
REMARK   68  A    between atoms: _148  and  _149
REMARK   69  A    between atoms: _152  and  _154
REMARK   70  A    between atoms: _154  and  _155
REMARK   71  A    between atoms: _154  and  _157
REMARK   72  A    between atoms: _157  and  _158
REMARK   73  A    between atoms: _160  and  _162
REMARK   74  A    between atoms: _162  and  _163
REMARK   75  A    between atoms: _165  and  _167
REMARK   76  A    between atoms: _167  and  _168
REMARK   77  A    between atoms: _170  and  _172
REMARK   78  A    between atoms: _172  and  _173
REMARK   79  A    between atoms: _172  and  _175
REMARK   80  A    between atoms: _178  and  _180
REMARK   81  A    between atoms: _180  and  _181
REMARK   82  A    between atoms: _180  and  _183
REMARK   83  A    between atoms: _183  and  _184
REMARK   84  A    between atoms: _186  and  _188
REMARK   85  A    between atoms: _188  and  _189
REMARK   86  A    between atoms: _188  and  _191
REMARK   87  A    between atoms: _191  and  _192
REMARK   88  A    between atoms: _202  and  _204
REMARK   89  A    between atoms: _204  and  _205
REMARK   90  A    between atoms: _207  and  _209
REMARK   91  A    between atoms: _209  and  _210
REMARK   92  A    between atoms: _209  and  _212
REMARK   93  A    between atoms: _212  and  _213
REMARK   94  A    between atoms: _218  and  _219
REMARK   95  A    between atoms: _221  and  _223
REMARK   96  A    between atoms: _223  and  _224
REMARK   97  A    between atoms: _226  and  _228
REMARK   98  A    between atoms: _228  and  _229
REMARK   99  A    between atoms: _228  and  _231
REMARK  100  A    between atoms: _231  and  _232
REMARK  101  A    between atoms: _233  and  _235
REMARK  102  A    between atoms: _235  and  _236
REMARK  103  A    between atoms: _239  and  _241
REMARK  104  A    between atoms: _241  and  _242
REMARK  105  A    between atoms: _241  and  _244
REMARK  106  A    between atoms: _244  and  _245
REMARK  107  A    between atoms: _245  and  _246
REMARK  108  A    between atoms: _249  and  _251
REMARK  109  A    between atoms: _251  and  _252
REMARK  110  A    between atoms: _251  and  _254
REMARK  111  A    between atoms: _254  and  _255
REMARK  112  A    between atoms: _261  and  _262
REMARK  113  A    between atoms: _267  and  _269
REMARK  114  A    between atoms: _269  and  _270
REMARK  115  A    between atoms: _272  and  _274
REMARK  116  A    between atoms: _274  and  _275
REMARK  117  A    between atoms: _274  and  _277
REMARK  118  A    between atoms: _280  and  _282
REMARK  119  A    between atoms: _282  and  _283
REMARK  120  A    between atoms: _282  and  _285
REMARK  121  A    between atoms: _285  and  _286
REMARK  122  A    between atoms: _291  and  _292
REMARK                            x       y       z     vdW  Elec       q    Type
REMARK                         _______ _______ _______ _____ _____    ______ ____
ROOT
ATOM      1  CA  ALA A   1      23.030  25.375  53.144  0.00  0.00    +0.133 C 
ATOM      2  CB  ALA A   1      21.861  25.760  54.047  0.00  0.00    +0.027 C 
ENDROOT
BRANCH   1   3
ATOM      3  N   ALA A   1      22.721  24.202  52.349  0.00  0.00    -0.239 NA
ATOM      4  H   ALA A   1      22.999  23.262  52.697  0.00  0.00    +0.142 HD
ENDBRANCH   1   3
BRANCH   1   5
ATOM      5  C   ALA A   1      24.264  25.052  53.963  0.00  0.00    +0.224 C 
ATOM      6  O   ALA A   1      24.473  23.901  54.373  0.00  0.00    -0.287 OA
ENDBRANCH   1   5
TORSDOF 2
REMARK  Name = ../refined-set-2016/1utl/1utl_pocket.pdb
REMARK  122 active torsions:
REMARK  status: ('A' for Active; 'I' for Inactive)
REMARK    1  A    between atoms: _1  and  _3
REMARK    2  A    between atoms: _3  and  _4
REMARK    3  A    between atoms: _3  and  _6
REMARK    4  A    between atoms: _9  and  _11
REMARK    5  A    between atoms: _11  and  _12
REMARK    6  A    between atoms: _11  and  _14
REMARK    7  A    between atoms: _14  and  _15
REMARK    8  A    between atoms: _15  and  _39
REMARK    9  A    between atoms: _16  and  _18
REMARK   10  A    between atoms: _18  and  _19
REMARK   11  A    between atoms: _22  and  _24
REMARK   12  A    between atoms: _24  and  _25
REMARK   13  A    between atoms: _24  and  _27
REMARK   14  A    between atoms: _27  and  _28
REMARK   15  A    between atoms: _33  and  _35
REMARK   16  A    between atoms: _35  and  _36
REMARK   17  A    between atoms: _35  and  _38
REMARK   18  A    between atoms: _38  and  _39
REMARK   19  A    between atoms: _40  and  _42
REMARK   20  A    between atoms: _42  and  _43
REMARK   21  A    between atoms: _42  and  _45
REMARK   22  A    between atoms: _45  and  _46
REMARK   23  A    between atoms: _49  and  _51
REMARK   24  A    between atoms: _51  and  _52
REMARK   25  A    between atoms: _51  and  _54
REMARK   26  A    between atoms: _54  and  _55
REMARK   27  A    between atoms: _58  and  _60
REMARK   28  A    between atoms: _60  and  _61
REMARK   29  A    between atoms: _60  and  _63
REMARK   30  A    between atoms: _63  and  _64
REMARK   31  A    between atoms: _69  and  _71
REMARK   32  A    between atoms: _71  and  _72
REMARK   33  A    between atoms: _71  and  _74
REMARK   34  A    between atoms: _74  and  _75
REMARK   35  A    between atoms: _80  and  _81
REMARK   36  A    between atoms: _83  and  _85
REMARK   37  A    between atoms: _85  and  _86
REMARK   38  A    between atoms: _89  and  _91
REMARK   39  A    between atoms: _91  and  _92
REMARK   40  A    between atoms: _91  and  _94
REMARK   41  A    between atoms: _94  and  _95
REMARK   42  A    between atoms: _95  and  _96
REMARK   43  A    between atoms: _96  and  _97
REMARK   44  A    between atoms: _97  and  _98
REMARK   45  A    between atoms: _102  and  _104
REMARK   46  A    between atoms: _104  and  _105
REMARK   47  A    between atoms: _104  and  _107
REMARK   48  A    between atoms: _107  and  _108
REMARK   49  A    between atoms: _111  and  _113
REMARK   50  A    between atoms: _113  and  _114
REMARK   51  A    between atoms: _113  and  _116
REMARK   52  A    between atoms: _116  and  _117
REMARK   53  A    between atoms: _119  and  _121
REMARK   54  A    between atoms: _121  and  _122
REMARK   55  A    between atoms: _121  and  _124
REMARK   56  A    between atoms: _124  and  _125
REMARK   57  A    between atoms: _125  and  _232
REMARK   58  A    between atoms: _126  and  _128
REMARK   59  A    between atoms: _128  and  _129
REMARK   60  A    between atoms: _128  and  _131
REMARK   61  A    between atoms: _131  and  _132
REMARK   62  A    between atoms: _132  and  _133
REMARK   63  A    between atoms: _138  and  _140
REMARK   64  A    between atoms: _140  and  _141
REMARK   65  A    between atoms: _143  and  _145
REMARK   66  A    between atoms: _145  and  _146
REMARK   67  A    between atoms: _145  and  _148
REMARK   68  A    between atoms: _148  and  _149
REMARK   69  A    between atoms: _152  and  _154
REMARK   70  A    between atoms: _154  and  _155
REMARK   71  A    between atoms: _154  and  _157
REMARK   72  A    between atoms: _157  and  _158
REMARK   73  A    between atoms: _160  and  _162
REMARK   74  A    between atoms: _162  and  _163
REMARK   75  A    between atoms: _165  and  _167
REMARK   76  A    between atoms: _167  and  _168
REMARK   77  A    between atoms: _170  and  _172
REMARK   78  A    between atoms: _172  and  _173
REMARK   79  A    between atoms: _172  and  _175
REMARK   80  A    between atoms: _178  and  _180
REMARK   81  A    between atoms: _180  and  _181
REMARK   82  A    between atoms: _180  and  _183
REMARK   83  A    between atoms: _183  and  _184
REMARK   84  A    between atoms: _186  and  _188
REMARK   85  A    between atoms: _188  and  _189
REMARK   86  A    between atoms: _188  and  _191
REMARK   87  A    between atoms: _191  and  _192
REMARK   88  A    between atoms: _202  and  _204
REMARK   89  A    between atoms: _204  and  _205
REMARK   90  A    between atoms: _207  and  _209
REMARK   91  A    between atoms: _209  and  _210
REMARK   92  A    between atoms: _209  and  _212
REMARK   93  A    between atoms: _212  and  _213
REMARK   94  A    between atoms: _218  and  _219
REMARK   95  A    between atoms: _221  and  _223
REMARK   96  A    between atoms: _223  and  _224
REMARK   97  A    between atoms: _226  and  _228
REMARK   98  A    between atoms: _228  and  _229
REMARK   99  A    between atoms: _228  and  _231
REMARK  100  A    between atoms: _231  and  _232
REMARK  101  A    between atoms: _233  and  _235
REMARK  102  A    between atoms: _235  and  _236
REMARK  103  A    between atoms: _239  and  _241
REMARK  104  A    between atoms: _241  and  _242
REMARK  105  A    between atoms: _241  and  _244
REMARK  106  A    between atoms: _244  and  _245
REMARK  107  A    between atoms: _245  and  _246
REMARK  108  A    between atoms: _249  and  _251
REMARK  109  A    between atoms: _251  and  _252
REMARK  110  A    between atoms: _251  and  _254
REMARK  111  A    between atoms: _254  and  _255
REMARK  112  A    between atoms: _261  and  _262
REMARK  113  A    between atoms: _267  and  _269
REMARK  114  A    between atoms: _269  and  _270
REMARK  115  A    between atoms: _272  and  _274
REMARK  116  A    between atoms: _274  and  _275
REMARK  117  A    between atoms: _274  and  _277
REMARK  118  A    between atoms: _280  and  _282
REMARK  119  A    between atoms: _282  and  _283
REMARK  120  A    between atoms: _282  and  _285
REMARK  121  A    between atoms: _285  and  _286
REMARK  122  A    between atoms: _291  and  _292
REMARK                            x       y       z     vdW  Elec       q    Type
REMARK                         _______ _______ _______ _____ _____    ______ ____
ROOT
ATOM      1  CB  GLY A   4      26.273  16.734  62.988  0.00  0.00    +0.098 C 
ENDROOT
BRANCH   1   2
ATOM      2  CA  GLY A   4      24.991  16.729  62.137  0.00  0.00    +0.160 C 
BRANCH   2   4
ATOM      3  C   TRP A   3      24.901  18.950  61.195  0.00  0.00    +0.243 C 
ATOM      4  N   GLY A   4      24.452  18.082  62.093  0.00  0.00    -0.296 N 
ATOM      5  H   GLY A   4      23.714  18.368  62.767  0.00  0.00    +0.150 HD
ATOM      6  O   TRP A   3      25.737  18.620  60.344  0.00  0.00    -0.273 OA
BRANCH   3   7
ATOM      7  CA  TRP A   3      24.340  20.387  61.218  0.00  0.00    +0.178 C 
BRANCH   7  10
ATOM      8  C   SER A   2      26.385  21.629  60.790  0.00  0.00    +0.241 C 
ATOM      9  O   SER A   2      26.655  21.691  61.992  0.00  0.00    -0.273 OA
ATOM     10  N   TRP A   3      25.258  21.095  60.332  0.00  0.00    -0.295 N 
ATOM     11  H   TRP A   3      25.026  21.183  59.322  0.00  0.00    +0.150 HD
BRANCH   8  12
ATOM     12  CA  SER A   2      27.319  22.232  59.737  0.00  0.00    +0.160 C 
BRANCH  12  14
ATOM     13  C   VAL A   1      29.212  23.731  59.570  0.00  0.00    +0.238 C 
ATOM     14  N   SER A   2      28.395  23.012  60.346  0.00  0.00    -0.297 N 
ATOM     15  H   SER A   2      28.524  23.007  61.378  0.00  0.00    +0.150 HD
ATOM     16  O   VAL A   1      29.029  23.874  58.351  0.00  0.00    -0.274 OA
BRANCH  13  17
ATOM     17  CA  VAL A   1      30.360  24.461  60.250  0.00  0.00    +0.145 C 
BRANCH  17  18
ATOM     18  N   VAL A   1      31.603  24.046  59.590  0.00  0.00    -0.238 NA
ATOM     19  H   VAL A   1      31.605  23.951  58.554  0.00  0.00    +0.142 HD
ENDBRANCH  17  18
BRANCH  17  20
ATOM     20  CB  VAL A   1      30.175  25.967  60.085  0.00  0.00    +0.026 C 
BRANCH  20  21
ATOM     21  CG  VAL A   1      31.229  26.783  60.804  0.00  0.00    -0.000 C 
BRANCH  21  22
ATOM     22  CD  VAL A   1      31.088  28.250  60.485  0.00  0.00    -0.024 C 
BRANCH  22  23
ATOM     23  CE  VAL A   1      31.772  29.098  61.544  0.00  0.00    -0.086 C 
BRANCH  23  24
ATOM     24  NZ  VAL A   1      31.631  30.551  61.239  0.00  0.00    +0.380 N 
ATOM     25  HZ1 VAL A   1      32.107  31.107  61.978  0.00  0.00    -0.089 HD
ATOM     26  HZ2 VAL A   1      30.622  30.802  61.211  0.00  0.00    -0.089 HD
ATOM     27  HZ3 VAL A   1      32.066  30.754  60.316  0.00  0.00    -0.089 HD
ENDBRANCH  23  24
ENDBRANCH  22  23
ENDBRANCH  21  22
ENDBRANCH  20  21
ENDBRANCH  17  20
ENDBRANCH  13  17
ENDBRANCH  12  14
BRANCH  12  28
ATOM     28  CB  SER A   2      27.994  21.081  58.969  0.00  0.00    +0.143 C 
BRANCH  28  29
ATOM     29  CG  SER A   2      27.103  20.412  57.930  0.00  0.00    +0.367 C 
ATOM     30  OD2 SER A   2      25.956  20.840  57.685  0.00  0.00    -0.246 OA
ATOM     31  OD1 SER A   2      27.598  19.432  57.327  0.00  0.00    -0.246 OA
ENDBRANCH  28  29
ENDBRANCH  12  28
ENDBRANCH   8  12
ENDBRANCH   7  10
BRANCH   7  32
ATOM     32  CB  TRP A   3      22.909  20.451  60.668  0.00  0.00    +0.166 C 
BRANCH  32  33
ATOM     33  O   TRP A   3      22.851  19.953  59.356  0.00  0.00    -0.380 OA
ATOM     34  H   TRP A   3      23.440  20.494  58.773  0.00  0.00    +0.211 HD
ENDBRANCH  32  33
ENDBRANCH   7  32
ENDBRANCH   3   7
ENDBRANCH   2   4
BRANCH   2  35
ATOM     35  C   GLY A   4      23.933  15.783  62.702  0.00  0.00    +0.242 C 
ATOM     36  O   GLY A   4      22.849  16.242  63.078  0.00  0.00    -0.273 OA
ATOM     37  N   GLN A   5      24.220  14.479  62.755  0.00  0.00    -0.297 N 
ATOM     38  H   GLN A   5      25.146  14.141  62.424  0.00  0.00    +0.150 HD
BRANCH  37  39
ATOM     39  CA  GLN A   5      23.235  13.517  63.279  0.00  0.00    +0.149 C 
BRANCH  39  40
ATOM     40  C   GLN A   5      22.742  13.948  64.656  0.00  0.00    +0.241 C 
ATOM     41  O   GLN A   5      23.520  14.428  65.485  0.00  0.00    -0.273 OA
ATOM     42  N   GLY A   6      21.441  13.817  64.887  0.00  0.00    -0.295 N 
ATOM     43  H   GLY A   6      20.825  13.393  64.164  0.00  0.00    +0.150 HD
BRANCH  42  44
ATOM     44  CA  GLY A   6      20.876  14.266  66.150  0.00  0.00    +0.176 C 
BRANCH  44  45
ATOM     45  C   GLY A   6      20.196  15.618  65.942  0.00  0.00    +0.243 C 
ATOM     46  O   GLY A   6      19.308  16.004  66.714  0.00  0.00    -0.273 OA
ATOM     47  N   ASP A   7      20.628  16.353  64.917  0.00  0.00    -0.296 N 
ATOM     48  H   ASP A   7      21.417  15.997  64.341  0.00  0.00    +0.150 HD
BRANCH  47  49
ATOM     49  CA  ASP A   7      20.026  17.648  64.575  0.00  0.00    +0.160 C 
BRANCH  49  50
ATOM     50  C   ASP A   7      18.881  17.414  63.581  0.00  0.00    +0.241 C 
ATOM     51  O   ASP A   7      18.077  18.308  63.339  0.00  0.00    -0.273 OA
ATOM     52  N   SER A   8      18.851  16.220  62.989  0.00  0.00    -0.295 N 
ATOM     53  H   SER A   8      19.586  15.529  63.243  0.00  0.00    +0.150 HD
BRANCH  52  54
ATOM     54  CA  SER A   8      17.841  15.822  61.999  0.00  0.00    +0.178 C 
BRANCH  54  55
ATOM     55  C   SER A   8      16.434  16.261  62.395  0.00  0.00    +0.243 C 
ATOM     56  O   SER A   8      16.040  16.090  63.553  0.00  0.00    -0.273 OA
ATOM     57  N   GLY A   9      15.691  16.800  61.428  0.00  0.00    -0.295 N 
ATOM     58  H   GLY A   9      16.096  16.902  60.476  0.00  0.00    +0.150 HD
BRANCH  57  59
ATOM     59  CA  GLY A   9      14.331  17.248  61.669  0.00  0.00    +0.176 C 
BRANCH  59  60
ATOM     60  C   GLY A   9      14.219  18.644  62.241  0.00  0.00    +0.243 C 
ATOM     61  N   GLY A  10      15.348  19.192  62.686  0.00  0.00    -0.296 N 
ATOM     62  H   GLY A  10      16.232  18.650  62.610  0.00  0.00    +0.150 HD
ATOM     63  O   GLY A   9      13.138  19.226  62.240  0.00  0.00    -0.273 OA
BRANCH  61  64
ATOM     64  CA  GLY A  10      15.389  20.518  63.273  0.00  0.00    +0.163 C 
BRANCH  64  65
ATOM     65  C   GLY A  10      15.142  21.645  62.307  0.00  0.00    +0.229 C 
ATOM     66  O   GLY A  10      15.143  21.452  61.090  0.00  0.00    -0.286 OA
ENDBRANCH  64  65
ENDBRANCH  61  64
ENDBRANCH  59  60
ENDBRANCH  57  59
ENDBRANCH  54  55
BRANCH  54  67
ATOM     67  CB  SER A   8      17.834  14.301  61.834  0.00  0.00    +0.166 C 
BRANCH  67  68
ATOM     68  OG  SER A   8      19.088  13.820  61.392  0.00  0.00    -0.380 OA
ATOM     69  H   SER A   8      19.047  12.835  61.296  0.00  0.00    +0.211 HD
ENDBRANCH  67  68
ENDBRANCH  54  67
ENDBRANCH  52  54
ENDBRANCH  49  50
BRANCH  49  70
ATOM     70  CB  ASP A   7      21.040  18.582  63.906  0.00  0.00    +0.143 C 
BRANCH  70  71
ATOM     71  CG  ASP A   7      22.135  19.041  64.848  0.00  0.00    +0.367 C 
ATOM     72  OD2 ASP A   7      21.856  19.266  66.043  0.00  0.00    -0.246 OA
ATOM     73  OD1 ASP A   7      23.275  19.205  64.381  0.00  0.00    -0.246 OA
ENDBRANCH  70  71
ENDBRANCH  49  70
ENDBRANCH  47  49
ENDBRANCH  44  45
ENDBRANCH  42  44
ENDBRANCH  39  40
BRANCH  39  74
ATOM     74  CB  GLN A   5      23.791  12.080  63.294  0.00  0.00    +0.039 C 
BRANCH  74  75
ATOM     75  CG  GLN A   5      25.031  11.842  64.161  0.00  0.00    +0.087 C 
BRANCH  75  76
ATOM     76  CD  GLN A   5      25.574  10.423  64.015  0.00  0.00    +0.219 C 
ATOM     77  OE1 GLN A   5      26.730  10.138  64.355  0.00  0.00    -0.275 OA
ATOM     78  NE2 GLN A   5      24.741   9.527  63.498  0.00  0.00    -0.329 N 
ATOM     79 HE21 GLN A   5      25.052   8.543  63.366  0.00  0.00    +0.145 HD
ATOM     80 HE22 GLN A   5      23.778   9.809  63.226  0.00  0.00    +0.145 HD
ENDBRANCH  75  76
ENDBRANCH  74  75
ENDBRANCH  39  74
ENDBRANCH  37  39
ENDBRANCH   2  35
ENDBRANCH   1   2
BRANCH   1  81
ATOM     81  SG  GLY A   4      27.391  15.316  62.726  0.00  0.00    -0.080 S 
BRANCH  81  82
ATOM     82  SG  ASP A   7      27.651  15.274  60.707  0.00  0.00    -0.080 S 
BRANCH  82  83
ATOM     83  CB  ASP A   7      28.903  16.542  60.463  0.00  0.00    +0.098 C 
BRANCH  83  84
ATOM     84  CA  ASP A   7      29.348  16.670  59.015  0.00  0.00    +0.160 C 
BRANCH  84  85
ATOM     85  N   ASP A   7      29.711  15.378  58.466  0.00  0.00    -0.296 N 
ATOM     86  H   ASP A   7      30.642  14.970  58.686  0.00  0.00    +0.150 HD
ATOM     87  C   GLY A   6      28.872  14.712  57.688  0.00  0.00    +0.243 C 
ATOM     88  O   GLY A   6      27.741  15.126  57.417  0.00  0.00    -0.273 OA
BRANCH  87  89
ATOM     89  CA  GLY A   6      29.373  13.389  57.139  0.00  0.00    +0.176 C 
BRANCH  89  90
ATOM     90  N   GLY A   6      28.639  13.020  55.943  0.00  0.00    -0.295 N 
ATOM     91  H   GLY A   6      28.051  12.162  55.947  0.00  0.00    +0.150 HD
ATOM     92  C   GLN A   5      28.707  13.759  54.846  0.00  0.00    +0.241 C 
ATOM     93  O   GLN A   5      29.360  14.802  54.774  0.00  0.00    -0.273 OA
BRANCH  92  94
ATOM     94  CA  GLN A   5      27.865  13.287  53.671  0.00  0.00    +0.153 C 
BRANCH  94  95
ATOM     95  N   GLN A   5      26.780  14.260  53.591  0.00  0.00    -0.297 N 
ATOM     96  C   GLY A   4      25.606  14.010  54.161  0.00  0.00    +0.243 C 
ATOM     97  O   GLY A   4      25.317  12.899  54.614  0.00  0.00    -0.273 OA
ATOM     98  H   GLN A   5      26.927  15.156  53.084  0.00  0.00    +0.150 HD
BRANCH  96  99
ATOM     99  CA  GLY A   4      24.551  15.103  54.090  0.00  0.00    +0.176 C 
BRANCH  99 100
ATOM    100  N   GLY A   4      23.277  14.560  54.544  0.00  0.00    -0.295 N 
ATOM    101  H   GLY A   4      23.216  13.548  54.774  0.00  0.00    +0.150 HD
ATOM    102  C   TRP A   3      22.189  15.314  54.674  0.00  0.00    +0.241 C 
ATOM    103  O   TRP A   3      22.179  16.525  54.490  0.00  0.00    -0.273 OA
BRANCH 102 104
ATOM    104  CA  TRP A   3      20.926  14.588  55.125  0.00  0.00    +0.153 C 
BRANCH 104 105
ATOM    105  N   TRP A   3      19.798  15.508  55.317  0.00  0.00    -0.297 N 
ATOM    106  C   SER A   2      18.839  15.259  56.206  0.00  0.00    +0.243 C 
ATOM    107  O   SER A   2      18.806  14.210  56.865  0.00  0.00    -0.273 OA
ATOM    108  H   TRP A   3      19.747  16.375  54.745  0.00  0.00    +0.150 HD
BRANCH 106 109
ATOM    109  CA  SER A   2      17.690  16.268  56.324  0.00  0.00    +0.178 C 
BRANCH 109 110
ATOM    110  N   SER A   2      17.930  17.536  57.002  0.00  0.00    -0.295 N 
ATOM    111  C   VAL A   1      17.316  17.830  58.146  0.00  0.00    +0.238 C 
ATOM    112  O   VAL A   1      16.599  17.029  58.745  0.00  0.00    -0.274 OA
ATOM    113  H   SER A   2      18.591  18.222  56.585  0.00  0.00    +0.150 HD
BRANCH 111 114
ATOM    114  CA  VAL A   1      17.588  19.225  58.724  0.00  0.00    +0.145 C 
BRANCH 114 115
ATOM    115  CB  VAL A   1      18.302  19.109  60.100  0.00  0.00    +0.025 C 
ATOM    116  CG2 VAL A   1      18.573  20.512  60.666  0.00  0.00    +0.002 C 
ATOM    117  CG1 VAL A   1      19.596  18.306  59.969  0.00  0.00    +0.002 C 
ENDBRANCH 114 115
BRANCH 114 118
ATOM    118  N   VAL A   1      16.322  19.975  58.826  0.00  0.00    -0.238 NA
ATOM    119  H   VAL A   1      16.020  20.343  59.751  0.00  0.00    +0.142 HD
ENDBRANCH 114 118
ENDBRANCH 111 114
ENDBRANCH 109 110
BRANCH 109 120
ATOM    120  CB  SER A   2      17.084  16.548  54.945  0.00  0.00    +0.166 C 
BRANCH 120 121
ATOM    121  OG  SER A   2      16.778  15.338  54.289  0.00  0.00    -0.380 OA
ATOM    122  H   SER A   2      16.126  14.826  54.831  0.00  0.00    +0.211 HD
ENDBRANCH 120 121
ENDBRANCH 109 120
ENDBRANCH 106 109
ENDBRANCH 104 105
BRANCH 104 123
ATOM    123  CB  TRP A   3      20.580  13.464  54.124  0.00  0.00    +0.057 C 
BRANCH 123 124
ATOM    124  CG  TRP A   3      20.223  13.908  52.712  0.00  0.00    -0.002 A 
ATOM    125  CD1 TRP A   3      18.979  14.239  52.245  0.00  0.00    +0.068 A 
ATOM    126  NE1 TRP A   3      19.040  14.539  50.899  0.00  0.00    -0.352 N 
ATOM    127  CE2 TRP A   3      20.334  14.404  50.470  0.00  0.00    +0.056 A 
ATOM    128  CZ2 TRP A   3      20.892  14.598  49.191  0.00  0.00    +0.017 A 
ATOM    129  CH2 TRP A   3      22.245  14.393  49.049  0.00  0.00    +0.001 A 
ATOM    130  CZ3 TRP A   3      23.048  14.004  50.139  0.00  0.00    +0.000 A 
ATOM    131  CE3 TRP A   3      22.491  13.809  51.413  0.00  0.00    +0.001 A 
ATOM    132  HE1 TRP A   3      18.234  14.822  50.306  0.00  0.00    +0.166 HD
ATOM    133  CD2 TRP A   3      21.112  14.012  51.586  0.00  0.00    +0.013 A 
ENDBRANCH 123 124
ENDBRANCH 104 123
ENDBRANCH 102 104
ENDBRANCH  99 100
ENDBRANCH  96  99
ENDBRANCH  94  95
BRANCH  94 134
ATOM    134  CB  GLN A   5      28.693  13.272  52.391  0.00  0.00    +0.055 C 
BRANCH 134 135
ATOM    135  CG  GLN A   5      28.145  12.358  51.322  0.00  0.00    -0.020 A 
ATOM    136  CD2 GLN A   5      28.885  11.264  50.868  0.00  0.00    -0.001 A 
ATOM    137  CE2 GLN A   5      28.395  10.428  49.868  0.00  0.00    +0.036 A 
ATOM    138  CZ  GLN A   5      27.154  10.685  49.313  0.00  0.00    +0.134 A 
ATOM    139  CE1 GLN A   5      26.398  11.768  49.749  0.00  0.00    +0.036 A 
ATOM    140  CD1 GLN A   5      26.897  12.594  50.751  0.00  0.00    -0.001 A 
BRANCH 138 141
ATOM    141  OH  GLN A   5      26.663   9.861  48.330  0.00  0.00    -0.506 OA
ATOM    142  HH  GLN A   5      25.771  10.184  48.045  0.00  0.00    +0.292 HD
ENDBRANCH 138 141
ENDBRANCH 134 135
ENDBRANCH  94 134
ENDBRANCH  92  94
ENDBRANCH  89  90
ENDBRANCH  87  89
ENDBRANCH  84  85
BRANCH  84 143
ATOM    143  C   ASP A   7      30.543  17.602  58.964  0.00  0.00    +0.242 C 
ATOM    144  O   ASP A   7      31.640  17.238  59.389  0.00  0.00    -0.273 OA
ATOM    145  N   SER A   8      30.309  18.797  58.436  0.00  0.00    -0.297 N 
ATOM    146  H   SER A   8      29.352  18.993  58.078  0.00  0.00    +0.150 HD
BRANCH 145 147
ATOM    147  CA  SER A   8      31.307  19.851  58.327  0.00  0.00    +0.149 C 
ATOM    148  CB  SER A   8      31.785  20.287  59.730  0.00  0.00    +0.031 C 
BRANCH 147 149
ATOM    149  C   SER A   8      32.486  19.514  57.407  0.00  0.00    +0.241 C 
ATOM    150  O   SER A   8      33.509  20.186  57.426  0.00  0.00    -0.273 OA
ATOM    151  N   GLY A   9      32.301  18.526  56.541  0.00  0.00    -0.298 N 
ATOM    152  H   GLY A   9      31.393  18.018  56.530  0.00  0.00    +0.150 HD
BRANCH 151 153
ATOM    153  CA  GLY A   9      33.352  18.140  55.603  0.00  0.00    +0.137 C 
BRANCH 153 154
ATOM    154  C   GLY A   9      33.369  19.112  54.425  0.00  0.00    +0.227 C 
ATOM    155  O   GLY A   9      32.309  19.553  53.948  0.00  0.00    -0.286 OA
ENDBRANCH 153 154
BRANCH 153 156
ATOM    156  CB  GLY A   9      33.117  16.721  55.074  0.00  0.00    +0.039 C 
BRANCH 156 157
ATOM    157  CG  GLY A   9      33.343  15.610  56.106  0.00  0.00    +0.116 C 
BRANCH 157 158
ATOM    158  CD  GLY A   9      33.063  14.217  55.555  0.00  0.00    +0.365 C 
ATOM    159  OE2 GLY A   9      33.177  13.244  56.328  0.00  0.00    -0.246 OA
ATOM    160  OE1 GLY A   9      32.728  14.088  54.357  0.00  0.00    -0.246 OA
ENDBRANCH 157 158
ENDBRANCH 156 157
ENDBRANCH 153 156
ENDBRANCH 151 153
ENDBRANCH 147 149
ENDBRANCH 145 147
ENDBRANCH  84 143
ENDBRANCH  83  84
ENDBRANCH  82  83
ENDBRANCH  81  82
ENDBRANCH   1  81
TORSDOF 70
REMARK  Name = ../refined-set-2016/1utl/1utl_pocket.pdb
REMARK  122 active torsions:
REMARK  status: ('A' for Active; 'I' for Inactive)
REMARK    1  A    between atoms: _1  and  _3
REMARK    2  A    between atoms: _3  and  _4
REMARK    3  A    between atoms: _3  and  _6
REMARK    4  A    between atoms: _9  and  _11
REMARK    5  A    between atoms: _11  and  _12
REMARK    6  A    between atoms: _11  and  _14
REMARK    7  A    between atoms: _14  and  _15
REMARK    8  A    between atoms: _15  and  _39
REMARK    9  A    between atoms: _16  and  _18
REMARK   10  A    between atoms: _18  and  _19
REMARK   11  A    between atoms: _22  and  _24
REMARK   12  A    between atoms: _24  and  _25
REMARK   13  A    between atoms: _24  and  _27
REMARK   14  A    between atoms: _27  and  _28
REMARK   15  A    between atoms: _33  and  _35
REMARK   16  A    between atoms: _35  and  _36
REMARK   17  A    between atoms: _35  and  _38
REMARK   18  A    between atoms: _38  and  _39
REMARK   19  A    between atoms: _40  and  _42
REMARK   20  A    between atoms: _42  and  _43
REMARK   21  A    between atoms: _42  and  _45
REMARK   22  A    between atoms: _45  and  _46
REMARK   23  A    between atoms: _49  and  _51
REMARK   24  A    between atoms: _51  and  _52
REMARK   25  A    between atoms: _51  and  _54
REMARK   26  A    between atoms: _54  and  _55
REMARK   27  A    between atoms: _58  and  _60
REMARK   28  A    between atoms: _60  and  _61
REMARK   29  A    between atoms: _60  and  _63
REMARK   30  A    between atoms: _63  and  _64
REMARK   31  A    between atoms: _69  and  _71
REMARK   32  A    between atoms: _71  and  _72
REMARK   33  A    between atoms: _71  and  _74
REMARK   34  A    between atoms: _74  and  _75
REMARK   35  A    between atoms: _80  and  _81
REMARK   36  A    between atoms: _83  and  _85
REMARK   37  A    between atoms: _85  and  _86
REMARK   38  A    between atoms: _89  and  _91
REMARK   39  A    between atoms: _91  and  _92
REMARK   40  A    between atoms: _91  and  _94
REMARK   41  A    between atoms: _94  and  _95
REMARK   42  A    between atoms: _95  and  _96
REMARK   43  A    between atoms: _96  and  _97
REMARK   44  A    between atoms: _97  and  _98
REMARK   45  A    between atoms: _102  and  _104
REMARK   46  A    between atoms: _104  and  _105
REMARK   47  A    between atoms: _104  and  _107
REMARK   48  A    between atoms: _107  and  _108
REMARK   49  A    between atoms: _111  and  _113
REMARK   50  A    between atoms: _113  and  _114
REMARK   51  A    between atoms: _113  and  _116
REMARK   52  A    between atoms: _116  and  _117
REMARK   53  A    between atoms: _119  and  _121
REMARK   54  A    between atoms: _121  and  _122
REMARK   55  A    between atoms: _121  and  _124
REMARK   56  A    between atoms: _124  and  _125
REMARK   57  A    between atoms: _125  and  _232
REMARK   58  A    between atoms: _126  and  _128
REMARK   59  A    between atoms: _128  and  _129
REMARK   60  A    between atoms: _128  and  _131
REMARK   61  A    between atoms: _131  and  _132
REMARK   62  A    between atoms: _132  and  _133
REMARK   63  A    between atoms: _138  and  _140
REMARK   64  A    between atoms: _140  and  _141
REMARK   65  A    between atoms: _143  and  _145
REMARK   66  A    between atoms: _145  and  _146
REMARK   67  A    between atoms: _145  and  _148
REMARK   68  A    between atoms: _148  and  _149
REMARK   69  A    between atoms: _152  and  _154
REMARK   70  A    between atoms: _154  and  _155
REMARK   71  A    between atoms: _154  and  _157
REMARK   72  A    between atoms: _157  and  _158
REMARK   73  A    between atoms: _160  and  _162
REMARK   74  A    between atoms: _162  and  _163
REMARK   75  A    between atoms: _165  and  _167
REMARK   76  A    between atoms: _167  and  _168
REMARK   77  A    between atoms: _170  and  _172
REMARK   78  A    between atoms: _172  and  _173
REMARK   79  A    between atoms: _172  and  _175
REMARK   80  A    between atoms: _178  and  _180
REMARK   81  A    between atoms: _180  and  _181
REMARK   82  A    between atoms: _180  and  _183
REMARK   83  A    between atoms: _183  and  _184
REMARK   84  A    between atoms: _186  and  _188
REMARK   85  A    between atoms: _188  and  _189
REMARK   86  A    between atoms: _188  and  _191
REMARK   87  A    between atoms: _191  and  _192
REMARK   88  A    between atoms: _202  and  _204
REMARK   89  A    between atoms: _204  and  _205
REMARK   90  A    between atoms: _207  and  _209
REMARK   91  A    between atoms: _209  and  _210
REMARK   92  A    between atoms: _209  and  _212
REMARK   93  A    between atoms: _212  and  _213
REMARK   94  A    between atoms: _218  and  _219
REMARK   95  A    between atoms: _221  and  _223
REMARK   96  A    between atoms: _223  and  _224
REMARK   97  A    between atoms: _226  and  _228
REMARK   98  A    between atoms: _228  and  _229
REMARK   99  A    between atoms: _228  and  _231
REMARK  100  A    between atoms: _231  and  _232
REMARK  101  A    between atoms: _233  and  _235
REMARK  102  A    between atoms: _235  and  _236
REMARK  103  A    between atoms: _239  and  _241
REMARK  104  A    between atoms: _241  and  _242
REMARK  105  A    between atoms: _241  and  _244
REMARK  106  A    between atoms: _244  and  _245
REMARK  107  A    between atoms: _245  and  _246
REMARK  108  A    between atoms: _249  and  _251
REMARK  109  A    between atoms: _251  and  _252
REMARK  110  A    between atoms: _251  and  _254
REMARK  111  A    between atoms: _254  and  _255
REMARK  112  A    between atoms: _261  and  _262
REMARK  113  A    between atoms: _267  and  _269
REMARK  114  A    between atoms: _269  and  _270
REMARK  115  A    between atoms: _272  and  _274
REMARK  116  A    between atoms: _274  and  _275
REMARK  117  A    between atoms: _274  and  _277
REMARK  118  A    between atoms: _280  and  _282
REMARK  119  A    between atoms: _282  and  _283
REMARK  120  A    between atoms: _282  and  _285
REMARK  121  A    between atoms: _285  and  _286
REMARK  122  A    between atoms: _291  and  _292
REMARK                            x       y       z     vdW  Elec       q    Type
REMARK                         _______ _______ _______ _____ _____    ______ ____
ROOT
ATOM      1  C   GLY A   3      23.006  20.159  53.631  0.00  0.00    +0.243 C 
ATOM      2  N   VAL A   4      22.149  19.135  53.571  0.00  0.00    -0.297 N 
ATOM      3  H   VAL A   4      22.326  18.298  54.162  0.00  0.00    +0.150 HD
ATOM      4  O   GLY A   3      22.906  21.178  52.919  0.00  0.00    -0.273 OA
ENDROOT
BRANCH   1   5
ATOM      5  CA  GLY A   3      24.169  20.015  54.613  0.00  0.00    +0.176 C 
BRANCH   5   7
ATOM      6  C   PRO A   2      26.056  20.219  53.137  0.00  0.00    +0.241 C 
ATOM      7  N   GLY A   3      25.362  20.709  54.160  0.00  0.00    -0.295 N 
ATOM      8  H   GLY A   3      25.671  21.583  54.632  0.00  0.00    +0.150 HD
ATOM      9  O   PRO A   2      25.738  19.175  52.561  0.00  0.00    -0.273 OA
BRANCH   6  13
ATOM     10  C   ASN A   1      28.910  19.149  52.457  0.00  0.00    +0.242 C 
ATOM     11  O   ASN A   1      28.836  18.891  53.660  0.00  0.00    -0.273 OA
ATOM     12  N   PRO A   2      28.204  20.153  51.904  0.00  0.00    -0.272 N 
ATOM     13  CA  PRO A   2      27.301  20.993  52.703  0.00  0.00    +0.152 C 
ATOM     14  CB  PRO A   2      26.950  22.126  51.741  0.00  0.00    +0.031 C 
ATOM     15  CG  PRO A   2      26.948  21.440  50.416  0.00  0.00    +0.024 C 
ATOM     16  CD  PRO A   2      28.162  20.540  50.481  0.00  0.00    +0.094 C 
BRANCH  10  17
ATOM     17  CA  ASN A   1      29.834  18.320  51.547  0.00  0.00    +0.154 C 
BRANCH  17  18
ATOM     18  N   ASN A   1      31.027  19.075  51.168  0.00  0.00    -0.238 NA
ATOM     19  H   ASN A   1      31.607  19.507  51.916  0.00  0.00    +0.142 HD
ENDBRANCH  17  18
BRANCH  17  20
ATOM     20  CB  ASN A   1      30.241  17.051  52.305  0.00  0.00    +0.111 C 
BRANCH  20  21
ATOM     21  CG  ASN A   1      30.931  16.019  51.430  0.00  0.00    +0.221 C 
ATOM     22  OD1 ASN A   1      31.695  15.197  51.932  0.00  0.00    -0.275 OA
ATOM     23  ND2 ASN A   1      30.611  15.999  50.152  0.00  0.00    -0.329 N 
ATOM     24 HD21 ASN A   1      29.960  16.714  49.768  0.00  0.00    +0.145 HD
ATOM     25 HD22 ASN A   1      31.009  15.269  49.528  0.00  0.00    +0.145 HD
ENDBRANCH  20  21
ENDBRANCH  17  20
ENDBRANCH  10  17
ENDBRANCH   6  13
ENDBRANCH   5   7
ENDBRANCH   1   5
BRANCH   2  26
ATOM     26  CA  VAL A   4      20.970  19.150  52.703  0.00  0.00    +0.149 C 
BRANCH  26  27
ATOM     27  C   VAL A   4      19.738  19.290  53.601  0.00  0.00    +0.241 C 
ATOM     28  O   VAL A   4      19.658  18.674  54.677  0.00  0.00    -0.273 OA
ATOM     29  N   TYR A   5      18.807  20.128  53.162  0.00  0.00    -0.298 N 
ATOM     30  H   TYR A   5      18.939  20.572  52.231  0.00  0.00    +0.150 HD
BRANCH  29  31
ATOM     31  CA  TYR A   5      17.607  20.455  53.924  0.00  0.00    +0.141 C 
BRANCH  31  32
ATOM     32  C   TYR A   5      16.325  20.311  53.098  0.00  0.00    +0.227 C 
ATOM     33  O   TYR A   5      16.345  20.511  51.886  0.00  0.00    -0.286 OA
ENDBRANCH  31  32
BRANCH  31  34
ATOM     34  CB  TYR A   5      17.737  21.898  54.418  0.00  0.00    +0.054 C 
BRANCH  34  35
ATOM     35  CG  TYR A   5      18.946  22.107  55.301  0.00  0.00    -0.020 A 
ATOM     36  CD2 TYR A   5      18.848  21.927  56.670  0.00  0.00    -0.001 A 
ATOM     37  CE2 TYR A   5      19.957  22.003  57.490  0.00  0.00    +0.036 A 
ATOM     38  CZ  TYR A   5      21.198  22.269  56.945  0.00  0.00    +0.134 A 
ATOM     39  CE1 TYR A   5      21.343  22.471  55.576  0.00  0.00    +0.036 A 
ATOM     40  CD1 TYR A   5      20.213  22.389  54.757  0.00  0.00    -0.001 A 
BRANCH  38  41
ATOM     41  OH  TYR A   5      22.266  22.281  57.801  0.00  0.00    -0.506 OA
ATOM     42  HH  TYR A   5      22.714  23.162  57.755  0.00  0.00    +0.292 HD
ENDBRANCH  38  41
ENDBRANCH  34  35
ENDBRANCH  31  34
ENDBRANCH  29  31
ENDBRANCH  26  27
BRANCH  26  43
ATOM     43  CB  VAL A   4      20.871  17.903  51.828  0.00  0.00    +0.027 C 
ATOM     44  CG2 VAL A   4      22.160  17.751  51.007  0.00  0.00    +0.002 C 
ATOM     45  CG1 VAL A   4      19.662  18.021  50.896  0.00  0.00    +0.002 C 
ENDBRANCH  26  43
ENDBRANCH   2  26
TORSDOF 15
REMARK  Name = ../refined-set-2016/1utl/1utl_pocket.pdb
REMARK  122 active torsions:
REMARK  status: ('A' for Active; 'I' for Inactive)
REMARK    1  A    between atoms: _1  and  _3
REMARK    2  A    between atoms: _3  and  _4
REMARK    3  A    between atoms: _3  and  _6
REMARK    4  A    between atoms: _9  and  _11
REMARK    5  A    between atoms: _11  and  _12
REMARK    6  A    between atoms: _11  and  _14
REMARK    7  A    between atoms: _14  and  _15
REMARK    8  A    between atoms: _15  and  _39
REMARK    9  A    between atoms: _16  and  _18
REMARK   10  A    between atoms: _18  and  _19
REMARK   11  A    between atoms: _22  and  _24
REMARK   12  A    between atoms: _24  and  _25
REMARK   13  A    between atoms: _24  and  _27
REMARK   14  A    between atoms: _27  and  _28
REMARK   15  A    between atoms: _33  and  _35
REMARK   16  A    between atoms: _35  and  _36
REMARK   17  A    between atoms: _35  and  _38
REMARK   18  A    between atoms: _38  and  _39
REMARK   19  A    between atoms: _40  and  _42
REMARK   20  A    between atoms: _42  and  _43
REMARK   21  A    between atoms: _42  and  _45
REMARK   22  A    between atoms: _45  and  _46
REMARK   23  A    between atoms: _49  and  _51
REMARK   24  A    between atoms: _51  and  _52
REMARK   25  A    between atoms: _51  and  _54
REMARK   26  A    between atoms: _54  and  _55
REMARK   27  A    between atoms: _58  and  _60
REMARK   28  A    between atoms: _60  and  _61
REMARK   29  A    between atoms: _60  and  _63
REMARK   30  A    between atoms: _63  and  _64
REMARK   31  A    between atoms: _69  and  _71
REMARK   32  A    between atoms: _71  and  _72
REMARK   33  A    between atoms: _71  and  _74
REMARK   34  A    between atoms: _74  and  _75
REMARK   35  A    between atoms: _80  and  _81
REMARK   36  A    between atoms: _83  and  _85
REMARK   37  A    between atoms: _85  and  _86
REMARK   38  A    between atoms: _89  and  _91
REMARK   39  A    between atoms: _91  and  _92
REMARK   40  A    between atoms: _91  and  _94
REMARK   41  A    between atoms: _94  and  _95
REMARK   42  A    between atoms: _95  and  _96
REMARK   43  A    between atoms: _96  and  _97
REMARK   44  A    between atoms: _97  and  _98
REMARK   45  A    between atoms: _102  and  _104
REMARK   46  A    between atoms: _104  and  _105
REMARK   47  A    between atoms: _104  and  _107
REMARK   48  A    between atoms: _107  and  _108
REMARK   49  A    between atoms: _111  and  _113
REMARK   50  A    between atoms: _113  and  _114
REMARK   51  A    between atoms: _113  and  _116
REMARK   52  A    between atoms: _116  and  _117
REMARK   53  A    between atoms: _119  and  _121
REMARK   54  A    between atoms: _121  and  _122
REMARK   55  A    between atoms: _121  and  _124
REMARK   56  A    between atoms: _124  and  _125
REMARK   57  A    between atoms: _125  and  _232
REMARK   58  A    between atoms: _126  and  _128
REMARK   59  A    between atoms: _128  and  _129
REMARK   60  A    between atoms: _128  and  _131
REMARK   61  A    between atoms: _131  and  _132
REMARK   62  A    between atoms: _132  and  _133
REMARK   63  A    between atoms: _138  and  _140
REMARK   64  A    between atoms: _140  and  _141
REMARK   65  A    between atoms: _143  and  _145
REMARK   66  A    between atoms: _145  and  _146
REMARK   67  A    between atoms: _145  and  _148
REMARK   68  A    between atoms: _148  and  _149
REMARK   69  A    between atoms: _152  and  _154
REMARK   70  A    between atoms: _154  and  _155
REMARK   71  A    between atoms: _154  and  _157
REMARK   72  A    between atoms: _157  and  _158
REMARK   73  A    between atoms: _160  and  _162
REMARK   74  A    between atoms: _162  and  _163
REMARK   75  A    between atoms: _165  and  _167
REMARK   76  A    between atoms: _167  and  _168
REMARK   77  A    between atoms: _170  and  _172
REMARK   78  A    between atoms: _172  and  _173
REMARK   79  A    between atoms: _172  and  _175
REMARK   80  A    between atoms: _178  and  _180
REMARK   81  A    between atoms: _180  and  _181
REMARK   82  A    between atoms: _180  and  _183
REMARK   83  A    between atoms: _183  and  _184
REMARK   84  A    between atoms: _186  and  _188
REMARK   85  A    between atoms: _188  and  _189
REMARK   86  A    between atoms: _188  and  _191
REMARK   87  A    between atoms: _191  and  _192
REMARK   88  A    between atoms: _202  and  _204
REMARK   89  A    between atoms: _204  and  _205
REMARK   90  A    between atoms: _207  and  _209
REMARK   91  A    between atoms: _209  and  _210
REMARK   92  A    between atoms: _209  and  _212
REMARK   93  A    between atoms: _212  and  _213
REMARK   94  A    between atoms: _218  and  _219
REMARK   95  A    between atoms: _221  and  _223
REMARK   96  A    between atoms: _223  and  _224
REMARK   97  A    between atoms: _226  and  _228
REMARK   98  A    between atoms: _228  and  _229
REMARK   99  A    between atoms: _228  and  _231
REMARK  100  A    between atoms: _231  and  _232
REMARK  101  A    between atoms: _233  and  _235
REMARK  102  A    between atoms: _235  and  _236
REMARK  103  A    between atoms: _239  and  _241
REMARK  104  A    between atoms: _241  and  _242
REMARK  105  A    between atoms: _241  and  _244
REMARK  106  A    between atoms: _244  and  _245
REMARK  107  A    between atoms: _245  and  _246
REMARK  108  A    between atoms: _249  and  _251
REMARK  109  A    between atoms: _251  and  _252
REMARK  110  A    between atoms: _251  and  _254
REMARK  111  A    between atoms: _254  and  _255
REMARK  112  A    between atoms: _261  and  _262
REMARK  113  A    between atoms: _267  and  _269
REMARK  114  A    between atoms: _269  and  _270
REMARK  115  A    between atoms: _272  and  _274
REMARK  116  A    between atoms: _274  and  _275
REMARK  117  A    between atoms: _274  and  _277
REMARK  118  A    between atoms: _280  and  _282
REMARK  119  A    between atoms: _282  and  _283
REMARK  120  A    between atoms: _282  and  _285
REMARK  121  A    between atoms: _285  and  _286
REMARK  122  A    between atoms: _291  and  _292
REMARK                            x       y       z     vdW  Elec       q    Type
REMARK                         _______ _______ _______ _____ _____    ______ ____
ROOT
ATOM      1  O   HOH     1      29.184  12.817  63.424  0.00  0.00    +0.000 OA
ENDROOT
TORSDOF 0
REMARK  Name = ../refined-set-2016/1utl/1utl_pocket.pdb
REMARK  122 active torsions:
REMARK  status: ('A' for Active; 'I' for Inactive)
REMARK    1  A    between atoms: _1  and  _3
REMARK    2  A    between atoms: _3  and  _4
REMARK    3  A    between atoms: _3  and  _6
REMARK    4  A    between atoms: _9  and  _11
REMARK    5  A    between atoms: _11  and  _12
REMARK    6  A    between atoms: _11  and  _14
REMARK    7  A    between atoms: _14  and  _15
REMARK    8  A    between atoms: _15  and  _39
REMARK    9  A    between atoms: _16  and  _18
REMARK   10  A    between atoms: _18  and  _19
REMARK   11  A    between atoms: _22  and  _24
REMARK   12  A    between atoms: _24  and  _25
REMARK   13  A    between atoms: _24  and  _27
REMARK   14  A    between atoms: _27  and  _28
REMARK   15  A    between atoms: _33  and  _35
REMARK   16  A    between atoms: _35  and  _36
REMARK   17  A    between atoms: _35  and  _38
REMARK   18  A    between atoms: _38  and  _39
REMARK   19  A    between atoms: _40  and  _42
REMARK   20  A    between atoms: _42  and  _43
REMARK   21  A    between atoms: _42  and  _45
REMARK   22  A    between atoms: _45  and  _46
REMARK   23  A    between atoms: _49  and  _51
REMARK   24  A    between atoms: _51  and  _52
REMARK   25  A    between atoms: _51  and  _54
REMARK   26  A    between atoms: _54  and  _55
REMARK   27  A    between atoms: _58  and  _60
REMARK   28  A    between atoms: _60  and  _61
REMARK   29  A    between atoms: _60  and  _63
REMARK   30  A    between atoms: _63  and  _64
REMARK   31  A    between atoms: _69  and  _71
REMARK   32  A    between atoms: _71  and  _72
REMARK   33  A    between atoms: _71  and  _74
REMARK   34  A    between atoms: _74  and  _75
REMARK   35  A    between atoms: _80  and  _81
REMARK   36  A    between atoms: _83  and  _85
REMARK   37  A    between atoms: _85  and  _86
REMARK   38  A    between atoms: _89  and  _91
REMARK   39  A    between atoms: _91  and  _92
REMARK   40  A    between atoms: _91  and  _94
REMARK   41  A    between atoms: _94  and  _95
REMARK   42  A    between atoms: _95  and  _96
REMARK   43  A    between atoms: _96  and  _97
REMARK   44  A    between atoms: _97  and  _98
REMARK   45  A    between atoms: _102  and  _104
REMARK   46  A    between atoms: _104  and  _105
REMARK   47  A    between atoms: _104  and  _107
REMARK   48  A    between atoms: _107  and  _108
REMARK   49  A    between atoms: _111  and  _113
REMARK   50  A    between atoms: _113  and  _114
REMARK   51  A    between atoms: _113  and  _116
REMARK   52  A    between atoms: _116  and  _117
REMARK   53  A    between atoms: _119  and  _121
REMARK   54  A    between atoms: _121  and  _122
REMARK   55  A    between atoms: _121  and  _124
REMARK   56  A    between atoms: _124  and  _125
REMARK   57  A    between atoms: _125  and  _232
REMARK   58  A    between atoms: _126  and  _128
REMARK   59  A    between atoms: _128  and  _129
REMARK   60  A    between atoms: _128  and  _131
REMARK   61  A    between atoms: _131  and  _132
REMARK   62  A    between atoms: _132  and  _133
REMARK   63  A    between atoms: _138  and  _140
REMARK   64  A    between atoms: _140  and  _141
REMARK   65  A    between atoms: _143  and  _145
REMARK   66  A    between atoms: _145  and  _146
REMARK   67  A    between atoms: _145  and  _148
REMARK   68  A    between atoms: _148  and  _149
REMARK   69  A    between atoms: _152  and  _154
REMARK   70  A    between atoms: _154  and  _155
REMARK   71  A    between atoms: _154  and  _157
REMARK   72  A    between atoms: _157  and  _158
REMARK   73  A    between atoms: _160  and  _162
REMARK   74  A    between atoms: _162  and  _163
REMARK   75  A    between atoms: _165  and  _167
REMARK   76  A    between atoms: _167  and  _168
REMARK   77  A    between atoms: _170  and  _172
REMARK   78  A    between atoms: _172  and  _173
REMARK   79  A    between atoms: _172  and  _175
REMARK   80  A    between atoms: _178  and  _180
REMARK   81  A    between atoms: _180  and  _181
REMARK   82  A    between atoms: _180  and  _183
REMARK   83  A    between atoms: _183  and  _184
REMARK   84  A    between atoms: _186  and  _188
REMARK   85  A    between atoms: _188  and  _189
REMARK   86  A    between atoms: _188  and  _191
REMARK   87  A    between atoms: _191  and  _192
REMARK   88  A    between atoms: _202  and  _204
REMARK   89  A    between atoms: _204  and  _205
REMARK   90  A    between atoms: _207  and  _209
REMARK   91  A    between atoms: _209  and  _210
REMARK   92  A    between atoms: _209  and  _212
REMARK   93  A    between atoms: _212  and  _213
REMARK   94  A    between atoms: _218  and  _219
REMARK   95  A    between atoms: _221  and  _223
REMARK   96  A    between atoms: _223  and  _224
REMARK   97  A    between atoms: _226  and  _228
REMARK   98  A    between atoms: _228  and  _229
REMARK   99  A    between atoms: _228  and  _231
REMARK  100  A    between atoms: _231  and  _232
REMARK  101  A    between atoms: _233  and  _235
REMARK  102  A    between atoms: _235  and  _236
REMARK  103  A    between atoms: _239  and  _241
REMARK  104  A    between atoms: _241  and  _242
REMARK  105  A    between atoms: _241  and  _244
REMARK  106  A    between atoms: _244  and  _245
REMARK  107  A    between atoms: _245  and  _246
REMARK  108  A    between atoms: _249  and  _251
REMARK  109  A    between atoms: _251  and  _252
REMARK  110  A    between atoms: _251  and  _254
REMARK  111  A    between atoms: _254  and  _255
REMARK  112  A    between atoms: _261  and  _262
REMARK  113  A    between atoms: _267  and  _269
REMARK  114  A    between atoms: _269  and  _270
REMARK  115  A    between atoms: _272  and  _274
REMARK  116  A    between atoms: _274  and  _275
REMARK  117  A    between atoms: _274  and  _277
REMARK  118  A    between atoms: _280  and  _282
REMARK  119  A    between atoms: _282  and  _283
REMARK  120  A    between atoms: _282  and  _285
REMARK  121  A    between atoms: _285  and  _286
REMARK  122  A    between atoms: _291  and  _292
REMARK                            x       y       z     vdW  Elec       q    Type
REMARK                         _______ _______ _______ _____ _____    ______ ____
ROOT
ATOM      1  O   HOH     1      28.172  23.330  55.770  0.00  0.00    +0.000 OA
ENDROOT
TORSDOF 0
REMARK  Name = ../refined-set-2016/1utl/1utl_pocket.pdb
REMARK  122 active torsions:
REMARK  status: ('A' for Active; 'I' for Inactive)
REMARK    1  A    between atoms: _1  and  _3
REMARK    2  A    between atoms: _3  and  _4
REMARK    3  A    between atoms: _3  and  _6
REMARK    4  A    between atoms: _9  and  _11
REMARK    5  A    between atoms: _11  and  _12
REMARK    6  A    between atoms: _11  and  _14
REMARK    7  A    between atoms: _14  and  _15
REMARK    8  A    between atoms: _15  and  _39
REMARK    9  A    between atoms: _16  and  _18
REMARK   10  A    between atoms: _18  and  _19
REMARK   11  A    between atoms: _22  and  _24
REMARK   12  A    between atoms: _24  and  _25
REMARK   13  A    between atoms: _24  and  _27
REMARK   14  A    between atoms: _27  and  _28
REMARK   15  A    between atoms: _33  and  _35
REMARK   16  A    between atoms: _35  and  _36
REMARK   17  A    between atoms: _35  and  _38
REMARK   18  A    between atoms: _38  and  _39
REMARK   19  A    between atoms: _40  and  _42
REMARK   20  A    between atoms: _42  and  _43
REMARK   21  A    between atoms: _42  and  _45
REMARK   22  A    between atoms: _45  and  _46
REMARK   23  A    between atoms: _49  and  _51
REMARK   24  A    between atoms: _51  and  _52
REMARK   25  A    between atoms: _51  and  _54
REMARK   26  A    between atoms: _54  and  _55
REMARK   27  A    between atoms: _58  and  _60
REMARK   28  A    between atoms: _60  and  _61
REMARK   29  A    between atoms: _60  and  _63
REMARK   30  A    between atoms: _63  and  _64
REMARK   31  A    between atoms: _69  and  _71
REMARK   32  A    between atoms: _71  and  _72
REMARK   33  A    between atoms: _71  and  _74
REMARK   34  A    between atoms: _74  and  _75
REMARK   35  A    between atoms: _80  and  _81
REMARK   36  A    between atoms: _83  and  _85
REMARK   37  A    between atoms: _85  and  _86
REMARK   38  A    between atoms: _89  and  _91
REMARK   39  A    between atoms: _91  and  _92
REMARK   40  A    between atoms: _91  and  _94
REMARK   41  A    between atoms: _94  and  _95
REMARK   42  A    between atoms: _95  and  _96
REMARK   43  A    between atoms: _96  and  _97
REMARK   44  A    between atoms: _97  and  _98
REMARK   45  A    between atoms: _102  and  _104
REMARK   46  A    between atoms: _104  and  _105
REMARK   47  A    between atoms: _104  and  _107
REMARK   48  A    between atoms: _107  and  _108
REMARK   49  A    between atoms: _111  and  _113
REMARK   50  A    between atoms: _113  and  _114
REMARK   51  A    between atoms: _113  and  _116
REMARK   52  A    between atoms: _116  and  _117
REMARK   53  A    between atoms: _119  and  _121
REMARK   54  A    between atoms: _121  and  _122
REMARK   55  A    between atoms: _121  and  _124
REMARK   56  A    between atoms: _124  and  _125
REMARK   57  A    between atoms: _125  and  _232
REMARK   58  A    between atoms: _126  and  _128
REMARK   59  A    between atoms: _128  and  _129
REMARK   60  A    between atoms: _128  and  _131
REMARK   61  A    between atoms: _131  and  _132
REMARK   62  A    between atoms: _132  and  _133
REMARK   63  A    between atoms: _138  and  _140
REMARK   64  A    between atoms: _140  and  _141
REMARK   65  A    between atoms: _143  and  _145
REMARK   66  A    between atoms: _145  and  _146
REMARK   67  A    between atoms: _145  and  _148
REMARK   68  A    between atoms: _148  and  _149
REMARK   69  A    between atoms: _152  and  _154
REMARK   70  A    between atoms: _154  and  _155
REMARK   71  A    between atoms: _154  and  _157
REMARK   72  A    between atoms: _157  and  _158
REMARK   73  A    between atoms: _160  and  _162
REMARK   74  A    between atoms: _162  and  _163
REMARK   75  A    between atoms: _165  and  _167
REMARK   76  A    between atoms: _167  and  _168
REMARK   77  A    between atoms: _170  and  _172
REMARK   78  A    between atoms: _172  and  _173
REMARK   79  A    between atoms: _172  and  _175
REMARK   80  A    between atoms: _178  and  _180
REMARK   81  A    between atoms: _180  and  _181
REMARK   82  A    between atoms: _180  and  _183
REMARK   83  A    between atoms: _183  and  _184
REMARK   84  A    between atoms: _186  and  _188
REMARK   85  A    between atoms: _188  and  _189
REMARK   86  A    between atoms: _188  and  _191
REMARK   87  A    between atoms: _191  and  _192
REMARK   88  A    between atoms: _202  and  _204
REMARK   89  A    between atoms: _204  and  _205
REMARK   90  A    between atoms: _207  and  _209
REMARK   91  A    between atoms: _209  and  _210
REMARK   92  A    between atoms: _209  and  _212
REMARK   93  A    between atoms: _212  and  _213
REMARK   94  A    between atoms: _218  and  _219
REMARK   95  A    between atoms: _221  and  _223
REMARK   96  A    between atoms: _223  and  _224
REMARK   97  A    between atoms: _226  and  _228
REMARK   98  A    between atoms: _228  and  _229
REMARK   99  A    between atoms: _228  and  _231
REMARK  100  A    between atoms: _231  and  _232
REMARK  101  A    between atoms: _233  and  _235
REMARK  102  A    between atoms: _235  and  _236
REMARK  103  A    between atoms: _239  and  _241
REMARK  104  A    between atoms: _241  and  _242
REMARK  105  A    between atoms: _241  and  _244
REMARK  106  A    between atoms: _244  and  _245
REMARK  107  A    between atoms: _245  and  _246
REMARK  108  A    between atoms: _249  and  _251
REMARK  109  A    between atoms: _251  and  _252
REMARK  110  A    between atoms: _251  and  _254
REMARK  111  A    between atoms: _254  and  _255
REMARK  112  A    between atoms: _261  and  _262
REMARK  113  A    between atoms: _267  and  _269
REMARK  114  A    between atoms: _269  and  _270
REMARK  115  A    between atoms: _272  and  _274
REMARK  116  A    between atoms: _274  and  _275
REMARK  117  A    between atoms: _274  and  _277
REMARK  118  A    between atoms: _280  and  _282
REMARK  119  A    between atoms: _282  and  _283
REMARK  120  A    between atoms: _282  and  _285
REMARK  121  A    between atoms: _285  and  _286
REMARK  122  A    between atoms: _291  and  _292
REMARK                            x       y       z     vdW  Elec       q    Type
REMARK                         _______ _______ _______ _____ _____    ______ ____
ROOT
ATOM      1  O   HOH     1      19.395  11.965  63.763  0.00  0.00    +0.000 OA
ENDROOT
TORSDOF 0
REMARK  Name = ../refined-set-2016/1utl/1utl_pocket.pdb
REMARK  122 active torsions:
REMARK  status: ('A' for Active; 'I' for Inactive)
REMARK    1  A    between atoms: _1  and  _3
REMARK    2  A    between atoms: _3  and  _4
REMARK    3  A    between atoms: _3  and  _6
REMARK    4  A    between atoms: _9  and  _11
REMARK    5  A    between atoms: _11  and  _12
REMARK    6  A    between atoms: _11  and  _14
REMARK    7  A    between atoms: _14  and  _15
REMARK    8  A    between atoms: _15  and  _39
REMARK    9  A    between atoms: _16  and  _18
REMARK   10  A    between atoms: _18  and  _19
REMARK   11  A    between atoms: _22  and  _24
REMARK   12  A    between atoms: _24  and  _25
REMARK   13  A    between atoms: _24  and  _27
REMARK   14  A    between atoms: _27  and  _28
REMARK   15  A    between atoms: _33  and  _35
REMARK   16  A    between atoms: _35  and  _36
REMARK   17  A    between atoms: _35  and  _38
REMARK   18  A    between atoms: _38  and  _39
REMARK   19  A    between atoms: _40  and  _42
REMARK   20  A    between atoms: _42  and  _43
REMARK   21  A    between atoms: _42  and  _45
REMARK   22  A    between atoms: _45  and  _46
REMARK   23  A    between atoms: _49  and  _51
REMARK   24  A    between atoms: _51  and  _52
REMARK   25  A    between atoms: _51  and  _54
REMARK   26  A    between atoms: _54  and  _55
REMARK   27  A    between atoms: _58  and  _60
REMARK   28  A    between atoms: _60  and  _61
REMARK   29  A    between atoms: _60  and  _63
REMARK   30  A    between atoms: _63  and  _64
REMARK   31  A    between atoms: _69  and  _71
REMARK   32  A    between atoms: _71  and  _72
REMARK   33  A    between atoms: _71  and  _74
REMARK   34  A    between atoms: _74  and  _75
REMARK   35  A    between atoms: _80  and  _81
REMARK   36  A    between atoms: _83  and  _85
REMARK   37  A    between atoms: _85  and  _86
REMARK   38  A    between atoms: _89  and  _91
REMARK   39  A    between atoms: _91  and  _92
REMARK   40  A    between atoms: _91  and  _94
REMARK   41  A    between atoms: _94  and  _95
REMARK   42  A    between atoms: _95  and  _96
REMARK   43  A    between atoms: _96  and  _97
REMARK   44  A    between atoms: _97  and  _98
REMARK   45  A    between atoms: _102  and  _104
REMARK   46  A    between atoms: _104  and  _105
REMARK   47  A    between atoms: _104  and  _107
REMARK   48  A    between atoms: _107  and  _108
REMARK   49  A    between atoms: _111  and  _113
REMARK   50  A    between atoms: _113  and  _114
REMARK   51  A    between atoms: _113  and  _116
REMARK   52  A    between atoms: _116  and  _117
REMARK   53  A    between atoms: _119  and  _121
REMARK   54  A    between atoms: _121  and  _122
REMARK   55  A    between atoms: _121  and  _124
REMARK   56  A    between atoms: _124  and  _125
REMARK   57  A    between atoms: _125  and  _232
REMARK   58  A    between atoms: _126  and  _128
REMARK   59  A    between atoms: _128  and  _129
REMARK   60  A    between atoms: _128  and  _131
REMARK   61  A    between atoms: _131  and  _132
REMARK   62  A    between atoms: _132  and  _133
REMARK   63  A    between atoms: _138  and  _140
REMARK   64  A    between atoms: _140  and  _141
REMARK   65  A    between atoms: _143  and  _145
REMARK   66  A    between atoms: _145  and  _146
REMARK   67  A    between atoms: _145  and  _148
REMARK   68  A    between atoms: _148  and  _149
REMARK   69  A    between atoms: _152  and  _154
REMARK   70  A    between atoms: _154  and  _155
REMARK   71  A    between atoms: _154  and  _157
REMARK   72  A    between atoms: _157  and  _158
REMARK   73  A    between atoms: _160  and  _162
REMARK   74  A    between atoms: _162  and  _163
REMARK   75  A    between atoms: _165  and  _167
REMARK   76  A    between atoms: _167  and  _168
REMARK   77  A    between atoms: _170  and  _172
REMARK   78  A    between atoms: _172  and  _173
REMARK   79  A    between atoms: _172  and  _175
REMARK   80  A    between atoms: _178  and  _180
REMARK   81  A    between atoms: _180  and  _181
REMARK   82  A    between atoms: _180  and  _183
REMARK   83  A    between atoms: _183  and  _184
REMARK   84  A    between atoms: _186  and  _188
REMARK   85  A    between atoms: _188  and  _189
REMARK   86  A    between atoms: _188  and  _191
REMARK   87  A    between atoms: _191  and  _192
REMARK   88  A    between atoms: _202  and  _204
REMARK   89  A    between atoms: _204  and  _205
REMARK   90  A    between atoms: _207  and  _209
REMARK   91  A    between atoms: _209  and  _210
REMARK   92  A    between atoms: _209  and  _212
REMARK   93  A    between atoms: _212  and  _213
REMARK   94  A    between atoms: _218  and  _219
REMARK   95  A    between atoms: _221  and  _223
REMARK   96  A    between atoms: _223  and  _224
REMARK   97  A    between atoms: _226  and  _228
REMARK   98  A    between atoms: _228  and  _229
REMARK   99  A    between atoms: _228  and  _231
REMARK  100  A    between atoms: _231  and  _232
REMARK  101  A    between atoms: _233  and  _235
REMARK  102  A    between atoms: _235  and  _236
REMARK  103  A    between atoms: _239  and  _241
REMARK  104  A    between atoms: _241  and  _242
REMARK  105  A    between atoms: _241  and  _244
REMARK  106  A    between atoms: _244  and  _245
REMARK  107  A    between atoms: _245  and  _246
REMARK  108  A    between atoms: _249  and  _251
REMARK  109  A    between atoms: _251  and  _252
REMARK  110  A    between atoms: _251  and  _254
REMARK  111  A    between atoms: _254  and  _255
REMARK  112  A    between atoms: _261  and  _262
REMARK  113  A    between atoms: _267  and  _269
REMARK  114  A    between atoms: _269  and  _270
REMARK  115  A    between atoms: _272  and  _274
REMARK  116  A    between atoms: _274  and  _275
REMARK  117  A    between atoms: _274  and  _277
REMARK  118  A    between atoms: _280  and  _282
REMARK  119  A    between atoms: _282  and  _283
REMARK  120  A    between atoms: _282  and  _285
REMARK  121  A    between atoms: _285  and  _286
REMARK  122  A    between atoms: _291  and  _292
REMARK                            x       y       z     vdW  Elec       q    Type
REMARK                         _______ _______ _______ _____ _____    ______ ____
ROOT
ATOM      1  O   HOH     1      29.837  17.309  55.793  0.00  0.00    +0.000 OA
ENDROOT
TORSDOF 0
REMARK  Name = ../refined-set-2016/1utl/1utl_pocket.pdb
REMARK  122 active torsions:
REMARK  status: ('A' for Active; 'I' for Inactive)
REMARK    1  A    between atoms: _1  and  _3
REMARK    2  A    between atoms: _3  and  _4
REMARK    3  A    between atoms: _3  and  _6
REMARK    4  A    between atoms: _9  and  _11
REMARK    5  A    between atoms: _11  and  _12
REMARK    6  A    between atoms: _11  and  _14
REMARK    7  A    between atoms: _14  and  _15
REMARK    8  A    between atoms: _15  and  _39
REMARK    9  A    between atoms: _16  and  _18
REMARK   10  A    between atoms: _18  and  _19
REMARK   11  A    between atoms: _22  and  _24
REMARK   12  A    between atoms: _24  and  _25
REMARK   13  A    between atoms: _24  and  _27
REMARK   14  A    between atoms: _27  and  _28
REMARK   15  A    between atoms: _33  and  _35
REMARK   16  A    between atoms: _35  and  _36
REMARK   17  A    between atoms: _35  and  _38
REMARK   18  A    between atoms: _38  and  _39
REMARK   19  A    between atoms: _40  and  _42
REMARK   20  A    between atoms: _42  and  _43
REMARK   21  A    between atoms: _42  and  _45
REMARK   22  A    between atoms: _45  and  _46
REMARK   23  A    between atoms: _49  and  _51
REMARK   24  A    between atoms: _51  and  _52
REMARK   25  A    between atoms: _51  and  _54
REMARK   26  A    between atoms: _54  and  _55
REMARK   27  A    between atoms: _58  and  _60
REMARK   28  A    between atoms: _60  and  _61
REMARK   29  A    between atoms: _60  and  _63
REMARK   30  A    between atoms: _63  and  _64
REMARK   31  A    between atoms: _69  and  _71
REMARK   32  A    between atoms: _71  and  _72
REMARK   33  A    between atoms: _71  and  _74
REMARK   34  A    between atoms: _74  and  _75
REMARK   35  A    between atoms: _80  and  _81
REMARK   36  A    between atoms: _83  and  _85
REMARK   37  A    between atoms: _85  and  _86
REMARK   38  A    between atoms: _89  and  _91
REMARK   39  A    between atoms: _91  and  _92
REMARK   40  A    between atoms: _91  and  _94
REMARK   41  A    between atoms: _94  and  _95
REMARK   42  A    between atoms: _95  and  _96
REMARK   43  A    between atoms: _96  and  _97
REMARK   44  A    between atoms: _97  and  _98
REMARK   45  A    between atoms: _102  and  _104
REMARK   46  A    between atoms: _104  and  _105
REMARK   47  A    between atoms: _104  and  _107
REMARK   48  A    between atoms: _107  and  _108
REMARK   49  A    between atoms: _111  and  _113
REMARK   50  A    between atoms: _113  and  _114
REMARK   51  A    between atoms: _113  and  _116
REMARK   52  A    between atoms: _116  and  _117
REMARK   53  A    between atoms: _119  and  _121
REMARK   54  A    between atoms: _121  and  _122
REMARK   55  A    between atoms: _121  and  _124
REMARK   56  A    between atoms: _124  and  _125
REMARK   57  A    between atoms: _125  and  _232
REMARK   58  A    between atoms: _126  and  _128
REMARK   59  A    between atoms: _128  and  _129
REMARK   60  A    between atoms: _128  and  _131
REMARK   61  A    between atoms: _131  and  _132
REMARK   62  A    between atoms: _132  and  _133
REMARK   63  A    between atoms: _138  and  _140
REMARK   64  A    between atoms: _140  and  _141
REMARK   65  A    between atoms: _143  and  _145
REMARK   66  A    between atoms: _145  and  _146
REMARK   67  A    between atoms: _145  and  _148
REMARK   68  A    between atoms: _148  and  _149
REMARK   69  A    between atoms: _152  and  _154
REMARK   70  A    between atoms: _154  and  _155
REMARK   71  A    between atoms: _154  and  _157
REMARK   72  A    between atoms: _157  and  _158
REMARK   73  A    between atoms: _160  and  _162
REMARK   74  A    between atoms: _162  and  _163
REMARK   75  A    between atoms: _165  and  _167
REMARK   76  A    between atoms: _167  and  _168
REMARK   77  A    between atoms: _170  and  _172
REMARK   78  A    between atoms: _172  and  _173
REMARK   79  A    between atoms: _172  and  _175
REMARK   80  A    between atoms: _178  and  _180
REMARK   81  A    between atoms: _180  and  _181
REMARK   82  A    between atoms: _180  and  _183
REMARK   83  A    between atoms: _183  and  _184
REMARK   84  A    between atoms: _186  and  _188
REMARK   85  A    between atoms: _188  and  _189
REMARK   86  A    between atoms: _188  and  _191
REMARK   87  A    between atoms: _191  and  _192
REMARK   88  A    between atoms: _202  and  _204
REMARK   89  A    between atoms: _204  and  _205
REMARK   90  A    between atoms: _207  and  _209
REMARK   91  A    between atoms: _209  and  _210
REMARK   92  A    between atoms: _209  and  _212
REMARK   93  A    between atoms: _212  and  _213
REMARK   94  A    between atoms: _218  and  _219
REMARK   95  A    between atoms: _221  and  _223
REMARK   96  A    between atoms: _223  and  _224
REMARK   97  A    between atoms: _226  and  _228
REMARK   98  A    between atoms: _228  and  _229
REMARK   99  A    between atoms: _228  and  _231
REMARK  100  A    between atoms: _231  and  _232
REMARK  101  A    between atoms: _233  and  _235
REMARK  102  A    between atoms: _235  and  _236
REMARK  103  A    between atoms: _239  and  _241
REMARK  104  A    between atoms: _241  and  _242
REMARK  105  A    between atoms: _241  and  _244
REMARK  106  A    between atoms: _244  and  _245
REMARK  107  A    between atoms: _245  and  _246
REMARK  108  A    between atoms: _249  and  _251
REMARK  109  A    between atoms: _251  and  _252
REMARK  110  A    between atoms: _251  and  _254
REMARK  111  A    between atoms: _254  and  _255
REMARK  112  A    between atoms: _261  and  _262
REMARK  113  A    between atoms: _267  and  _269
REMARK  114  A    between atoms: _269  and  _270
REMARK  115  A    between atoms: _272  and  _274
REMARK  116  A    between atoms: _274  and  _275
REMARK  117  A    between atoms: _274  and  _277
REMARK  118  A    between atoms: _280  and  _282
REMARK  119  A    between atoms: _282  and  _283
REMARK  120  A    between atoms: _282  and  _285
REMARK  121  A    between atoms: _285  and  _286
REMARK  122  A    between atoms: _291  and  _292
REMARK                            x       y       z     vdW  Elec       q    Type
REMARK                         _______ _______ _______ _____ _____    ______ ____
ROOT
ATOM      1  O   HOH     1      27.837  10.239  56.022  0.00  0.00    +0.000 OA
ENDROOT
TORSDOF 0
REMARK  Name = ../refined-set-2016/1utl/1utl_pocket.pdb
REMARK  122 active torsions:
REMARK  status: ('A' for Active; 'I' for Inactive)
REMARK    1  A    between atoms: _1  and  _3
REMARK    2  A    between atoms: _3  and  _4
REMARK    3  A    between atoms: _3  and  _6
REMARK    4  A    between atoms: _9  and  _11
REMARK    5  A    between atoms: _11  and  _12
REMARK    6  A    between atoms: _11  and  _14
REMARK    7  A    between atoms: _14  and  _15
REMARK    8  A    between atoms: _15  and  _39
REMARK    9  A    between atoms: _16  and  _18
REMARK   10  A    between atoms: _18  and  _19
REMARK   11  A    between atoms: _22  and  _24
REMARK   12  A    between atoms: _24  and  _25
REMARK   13  A    between atoms: _24  and  _27
REMARK   14  A    between atoms: _27  and  _28
REMARK   15  A    between atoms: _33  and  _35
REMARK   16  A    between atoms: _35  and  _36
REMARK   17  A    between atoms: _35  and  _38
REMARK   18  A    between atoms: _38  and  _39
REMARK   19  A    between atoms: _40  and  _42
REMARK   20  A    between atoms: _42  and  _43
REMARK   21  A    between atoms: _42  and  _45
REMARK   22  A    between atoms: _45  and  _46
REMARK   23  A    between atoms: _49  and  _51
REMARK   24  A    between atoms: _51  and  _52
REMARK   25  A    between atoms: _51  and  _54
REMARK   26  A    between atoms: _54  and  _55
REMARK   27  A    between atoms: _58  and  _60
REMARK   28  A    between atoms: _60  and  _61
REMARK   29  A    between atoms: _60  and  _63
REMARK   30  A    between atoms: _63  and  _64
REMARK   31  A    between atoms: _69  and  _71
REMARK   32  A    between atoms: _71  and  _72
REMARK   33  A    between atoms: _71  and  _74
REMARK   34  A    between atoms: _74  and  _75
REMARK   35  A    between atoms: _80  and  _81
REMARK   36  A    between atoms: _83  and  _85
REMARK   37  A    between atoms: _85  and  _86
REMARK   38  A    between atoms: _89  and  _91
REMARK   39  A    between atoms: _91  and  _92
REMARK   40  A    between atoms: _91  and  _94
REMARK   41  A    between atoms: _94  and  _95
REMARK   42  A    between atoms: _95  and  _96
REMARK   43  A    between atoms: _96  and  _97
REMARK   44  A    between atoms: _97  and  _98
REMARK   45  A    between atoms: _102  and  _104
REMARK   46  A    between atoms: _104  and  _105
REMARK   47  A    between atoms: _104  and  _107
REMARK   48  A    between atoms: _107  and  _108
REMARK   49  A    between atoms: _111  and  _113
REMARK   50  A    between atoms: _113  and  _114
REMARK   51  A    between atoms: _113  and  _116
REMARK   52  A    between atoms: _116  and  _117
REMARK   53  A    between atoms: _119  and  _121
REMARK   54  A    between atoms: _121  and  _122
REMARK   55  A    between atoms: _121  and  _124
REMARK   56  A    between atoms: _124  and  _125
REMARK   57  A    between atoms: _125  and  _232
REMARK   58  A    between atoms: _126  and  _128
REMARK   59  A    between atoms: _128  and  _129
REMARK   60  A    between atoms: _128  and  _131
REMARK   61  A    between atoms: _131  and  _132
REMARK   62  A    between atoms: _132  and  _133
REMARK   63  A    between atoms: _138  and  _140
REMARK   64  A    between atoms: _140  and  _141
REMARK   65  A    between atoms: _143  and  _145
REMARK   66  A    between atoms: _145  and  _146
REMARK   67  A    between atoms: _145  and  _148
REMARK   68  A    between atoms: _148  and  _149
REMARK   69  A    between atoms: _152  and  _154
REMARK   70  A    between atoms: _154  and  _155
REMARK   71  A    between atoms: _154  and  _157
REMARK   72  A    between atoms: _157  and  _158
REMARK   73  A    between atoms: _160  and  _162
REMARK   74  A    between atoms: _162  and  _163
REMARK   75  A    between atoms: _165  and  _167
REMARK   76  A    between atoms: _167  and  _168
REMARK   77  A    between atoms: _170  and  _172
REMARK   78  A    between atoms: _172  and  _173
REMARK   79  A    between atoms: _172  and  _175
REMARK   80  A    between atoms: _178  and  _180
REMARK   81  A    between atoms: _180  and  _181
REMARK   82  A    between atoms: _180  and  _183
REMARK   83  A    between atoms: _183  and  _184
REMARK   84  A    between atoms: _186  and  _188
REMARK   85  A    between atoms: _188  and  _189
REMARK   86  A    between atoms: _188  and  _191
REMARK   87  A    between atoms: _191  and  _192
REMARK   88  A    between atoms: _202  and  _204
REMARK   89  A    between atoms: _204  and  _205
REMARK   90  A    between atoms: _207  and  _209
REMARK   91  A    between atoms: _209  and  _210
REMARK   92  A    between atoms: _209  and  _212
REMARK   93  A    between atoms: _212  and  _213
REMARK   94  A    between atoms: _218  and  _219
REMARK   95  A    between atoms: _221  and  _223
REMARK   96  A    between atoms: _223  and  _224
REMARK   97  A    between atoms: _226  and  _228
REMARK   98  A    between atoms: _228  and  _229
REMARK   99  A    between atoms: _228  and  _231
REMARK  100  A    between atoms: _231  and  _232
REMARK  101  A    between atoms: _233  and  _235
REMARK  102  A    between atoms: _235  and  _236
REMARK  103  A    between atoms: _239  and  _241
REMARK  104  A    between atoms: _241  and  _242
REMARK  105  A    between atoms: _241  and  _244
REMARK  106  A    between atoms: _244  and  _245
REMARK  107  A    between atoms: _245  and  _246
REMARK  108  A    between atoms: _249  and  _251
REMARK  109  A    between atoms: _251  and  _252
REMARK  110  A    between atoms: _251  and  _254
REMARK  111  A    between atoms: _254  and  _255
REMARK  112  A    between atoms: _261  and  _262
REMARK  113  A    between atoms: _267  and  _269
REMARK  114  A    between atoms: _269  and  _270
REMARK  115  A    between atoms: _272  and  _274
REMARK  116  A    between atoms: _274  and  _275
REMARK  117  A    between atoms: _274  and  _277
REMARK  118  A    between atoms: _280  and  _282
REMARK  119  A    between atoms: _282  and  _283
REMARK  120  A    between atoms: _282  and  _285
REMARK  121  A    between atoms: _285  and  _286
REMARK  122  A    between atoms: _291  and  _292
REMARK                            x       y       z     vdW  Elec       q    Type
REMARK                         _______ _______ _______ _____ _____    ______ ____
ROOT
ATOM      1  O   HOH     1      29.777  20.940  55.579  0.00  0.00    +0.000 OA
ENDROOT
TORSDOF 0
REMARK  Name = ../refined-set-2016/1utl/1utl_pocket.pdb
REMARK  122 active torsions:
REMARK  status: ('A' for Active; 'I' for Inactive)
REMARK    1  A    between atoms: _1  and  _3
REMARK    2  A    between atoms: _3  and  _4
REMARK    3  A    between atoms: _3  and  _6
REMARK    4  A    between atoms: _9  and  _11
REMARK    5  A    between atoms: _11  and  _12
REMARK    6  A    between atoms: _11  and  _14
REMARK    7  A    between atoms: _14  and  _15
REMARK    8  A    between atoms: _15  and  _39
REMARK    9  A    between atoms: _16  and  _18
REMARK   10  A    between atoms: _18  and  _19
REMARK   11  A    between atoms: _22  and  _24
REMARK   12  A    between atoms: _24  and  _25
REMARK   13  A    between atoms: _24  and  _27
REMARK   14  A    between atoms: _27  and  _28
REMARK   15  A    between atoms: _33  and  _35
REMARK   16  A    between atoms: _35  and  _36
REMARK   17  A    between atoms: _35  and  _38
REMARK   18  A    between atoms: _38  and  _39
REMARK   19  A    between atoms: _40  and  _42
REMARK   20  A    between atoms: _42  and  _43
REMARK   21  A    between atoms: _42  and  _45
REMARK   22  A    between atoms: _45  and  _46
REMARK   23  A    between atoms: _49  and  _51
REMARK   24  A    between atoms: _51  and  _52
REMARK   25  A    between atoms: _51  and  _54
REMARK   26  A    between atoms: _54  and  _55
REMARK   27  A    between atoms: _58  and  _60
REMARK   28  A    between atoms: _60  and  _61
REMARK   29  A    between atoms: _60  and  _63
REMARK   30  A    between atoms: _63  and  _64
REMARK   31  A    between atoms: _69  and  _71
REMARK   32  A    between atoms: _71  and  _72
REMARK   33  A    between atoms: _71  and  _74
REMARK   34  A    between atoms: _74  and  _75
REMARK   35  A    between atoms: _80  and  _81
REMARK   36  A    between atoms: _83  and  _85
REMARK   37  A    between atoms: _85  and  _86
REMARK   38  A    between atoms: _89  and  _91
REMARK   39  A    between atoms: _91  and  _92
REMARK   40  A    between atoms: _91  and  _94
REMARK   41  A    between atoms: _94  and  _95
REMARK   42  A    between atoms: _95  and  _96
REMARK   43  A    between atoms: _96  and  _97
REMARK   44  A    between atoms: _97  and  _98
REMARK   45  A    between atoms: _102  and  _104
REMARK   46  A    between atoms: _104  and  _105
REMARK   47  A    between atoms: _104  and  _107
REMARK   48  A    between atoms: _107  and  _108
REMARK   49  A    between atoms: _111  and  _113
REMARK   50  A    between atoms: _113  and  _114
REMARK   51  A    between atoms: _113  and  _116
REMARK   52  A    between atoms: _116  and  _117
REMARK   53  A    between atoms: _119  and  _121
REMARK   54  A    between atoms: _121  and  _122
REMARK   55  A    between atoms: _121  and  _124
REMARK   56  A    between atoms: _124  and  _125
REMARK   57  A    between atoms: _125  and  _232
REMARK   58  A    between atoms: _126  and  _128
REMARK   59  A    between atoms: _128  and  _129
REMARK   60  A    between atoms: _128  and  _131
REMARK   61  A    between atoms: _131  and  _132
REMARK   62  A    between atoms: _132  and  _133
REMARK   63  A    between atoms: _138  and  _140
REMARK   64  A    between atoms: _140  and  _141
REMARK   65  A    between atoms: _143  and  _145
REMARK   66  A    between atoms: _145  and  _146
REMARK   67  A    between atoms: _145  and  _148
REMARK   68  A    between atoms: _148  and  _149
REMARK   69  A    between atoms: _152  and  _154
REMARK   70  A    between atoms: _154  and  _155
REMARK   71  A    between atoms: _154  and  _157
REMARK   72  A    between atoms: _157  and  _158
REMARK   73  A    between atoms: _160  and  _162
REMARK   74  A    between atoms: _162  and  _163
REMARK   75  A    between atoms: _165  and  _167
REMARK   76  A    between atoms: _167  and  _168
REMARK   77  A    between atoms: _170  and  _172
REMARK   78  A    between atoms: _172  and  _173
REMARK   79  A    between atoms: _172  and  _175
REMARK   80  A    between atoms: _178  and  _180
REMARK   81  A    between atoms: _180  and  _181
REMARK   82  A    between atoms: _180  and  _183
REMARK   83  A    between atoms: _183  and  _184
REMARK   84  A    between atoms: _186  and  _188
REMARK   85  A    between atoms: _188  and  _189
REMARK   86  A    between atoms: _188  and  _191
REMARK   87  A    between atoms: _191  and  _192
REMARK   88  A    between atoms: _202  and  _204
REMARK   89  A    between atoms: _204  and  _205
REMARK   90  A    between atoms: _207  and  _209
REMARK   91  A    between atoms: _209  and  _210
REMARK   92  A    between atoms: _209  and  _212
REMARK   93  A    between atoms: _212  and  _213
REMARK   94  A    between atoms: _218  and  _219
REMARK   95  A    between atoms: _221  and  _223
REMARK   96  A    between atoms: _223  and  _224
REMARK   97  A    between atoms: _226  and  _228
REMARK   98  A    between atoms: _228  and  _229
REMARK   99  A    between atoms: _228  and  _231
REMARK  100  A    between atoms: _231  and  _232
REMARK  101  A    between atoms: _233  and  _235
REMARK  102  A    between atoms: _235  and  _236
REMARK  103  A    between atoms: _239  and  _241
REMARK  104  A    between atoms: _241  and  _242
REMARK  105  A    between atoms: _241  and  _244
REMARK  106  A    between atoms: _244  and  _245
REMARK  107  A    between atoms: _245  and  _246
REMARK  108  A    between atoms: _249  and  _251
REMARK  109  A    between atoms: _251  and  _252
REMARK  110  A    between atoms: _251  and  _254
REMARK  111  A    between atoms: _254  and  _255
REMARK  112  A    between atoms: _261  and  _262
REMARK  113  A    between atoms: _267  and  _269
REMARK  114  A    between atoms: _269  and  _270
REMARK  115  A    between atoms: _272  and  _274
REMARK  116  A    between atoms: _274  and  _275
REMARK  117  A    between atoms: _274  and  _277
REMARK  118  A    between atoms: _280  and  _282
REMARK  119  A    between atoms: _282  and  _283
REMARK  120  A    between atoms: _282  and  _285
REMARK  121  A    between atoms: _285  and  _286
REMARK  122  A    between atoms: _291  and  _292
REMARK                            x       y       z     vdW  Elec       q    Type
REMARK                         _______ _______ _______ _____ _____    ______ ____
ROOT
ATOM      1  O   HOH     1      21.480  18.741  56.825  0.00  0.00    +0.000 OA
ENDROOT
TORSDOF 0
REMARK  Name = ../refined-set-2016/1utl/1utl_pocket.pdb
REMARK  122 active torsions:
REMARK  status: ('A' for Active; 'I' for Inactive)
REMARK    1  A    between atoms: _1  and  _3
REMARK    2  A    between atoms: _3  and  _4
REMARK    3  A    between atoms: _3  and  _6
REMARK    4  A    between atoms: _9  and  _11
REMARK    5  A    between atoms: _11  and  _12
REMARK    6  A    between atoms: _11  and  _14
REMARK    7  A    between atoms: _14  and  _15
REMARK    8  A    between atoms: _15  and  _39
REMARK    9  A    between atoms: _16  and  _18
REMARK   10  A    between atoms: _18  and  _19
REMARK   11  A    between atoms: _22  and  _24
REMARK   12  A    between atoms: _24  and  _25
REMARK   13  A    between atoms: _24  and  _27
REMARK   14  A    between atoms: _27  and  _28
REMARK   15  A    between atoms: _33  and  _35
REMARK   16  A    between atoms: _35  and  _36
REMARK   17  A    between atoms: _35  and  _38
REMARK   18  A    between atoms: _38  and  _39
REMARK   19  A    between atoms: _40  and  _42
REMARK   20  A    between atoms: _42  and  _43
REMARK   21  A    between atoms: _42  and  _45
REMARK   22  A    between atoms: _45  and  _46
REMARK   23  A    between atoms: _49  and  _51
REMARK   24  A    between atoms: _51  and  _52
REMARK   25  A    between atoms: _51  and  _54
REMARK   26  A    between atoms: _54  and  _55
REMARK   27  A    between atoms: _58  and  _60
REMARK   28  A    between atoms: _60  and  _61
REMARK   29  A    between atoms: _60  and  _63
REMARK   30  A    between atoms: _63  and  _64
REMARK   31  A    between atoms: _69  and  _71
REMARK   32  A    between atoms: _71  and  _72
REMARK   33  A    between atoms: _71  and  _74
REMARK   34  A    between atoms: _74  and  _75
REMARK   35  A    between atoms: _80  and  _81
REMARK   36  A    between atoms: _83  and  _85
REMARK   37  A    between atoms: _85  and  _86
REMARK   38  A    between atoms: _89  and  _91
REMARK   39  A    between atoms: _91  and  _92
REMARK   40  A    between atoms: _91  and  _94
REMARK   41  A    between atoms: _94  and  _95
REMARK   42  A    between atoms: _95  and  _96
REMARK   43  A    between atoms: _96  and  _97
REMARK   44  A    between atoms: _97  and  _98
REMARK   45  A    between atoms: _102  and  _104
REMARK   46  A    between atoms: _104  and  _105
REMARK   47  A    between atoms: _104  and  _107
REMARK   48  A    between atoms: _107  and  _108
REMARK   49  A    between atoms: _111  and  _113
REMARK   50  A    between atoms: _113  and  _114
REMARK   51  A    between atoms: _113  and  _116
REMARK   52  A    between atoms: _116  and  _117
REMARK   53  A    between atoms: _119  and  _121
REMARK   54  A    between atoms: _121  and  _122
REMARK   55  A    between atoms: _121  and  _124
REMARK   56  A    between atoms: _124  and  _125
REMARK   57  A    between atoms: _125  and  _232
REMARK   58  A    between atoms: _126  and  _128
REMARK   59  A    between atoms: _128  and  _129
REMARK   60  A    between atoms: _128  and  _131
REMARK   61  A    between atoms: _131  and  _132
REMARK   62  A    between atoms: _132  and  _133
REMARK   63  A    between atoms: _138  and  _140
REMARK   64  A    between atoms: _140  and  _141
REMARK   65  A    between atoms: _143  and  _145
REMARK   66  A    between atoms: _145  and  _146
REMARK   67  A    between atoms: _145  and  _148
REMARK   68  A    between atoms: _148  and  _149
REMARK   69  A    between atoms: _152  and  _154
REMARK   70  A    between atoms: _154  and  _155
REMARK   71  A    between atoms: _154  and  _157
REMARK   72  A    between atoms: _157  and  _158
REMARK   73  A    between atoms: _160  and  _162
REMARK   74  A    between atoms: _162  and  _163
REMARK   75  A    between atoms: _165  and  _167
REMARK   76  A    between atoms: _167  and  _168
REMARK   77  A    between atoms: _170  and  _172
REMARK   78  A    between atoms: _172  and  _173
REMARK   79  A    between atoms: _172  and  _175
REMARK   80  A    between atoms: _178  and  _180
REMARK   81  A    between atoms: _180  and  _181
REMARK   82  A    between atoms: _180  and  _183
REMARK   83  A    between atoms: _183  and  _184
REMARK   84  A    between atoms: _186  and  _188
REMARK   85  A    between atoms: _188  and  _189
REMARK   86  A    between atoms: _188  and  _191
REMARK   87  A    between atoms: _191  and  _192
REMARK   88  A    between atoms: _202  and  _204
REMARK   89  A    between atoms: _204  and  _205
REMARK   90  A    between atoms: _207  and  _209
REMARK   91  A    between atoms: _209  and  _210
REMARK   92  A    between atoms: _209  and  _212
REMARK   93  A    between atoms: _212  and  _213
REMARK   94  A    between atoms: _218  and  _219
REMARK   95  A    between atoms: _221  and  _223
REMARK   96  A    between atoms: _223  and  _224
REMARK   97  A    between atoms: _226  and  _228
REMARK   98  A    between atoms: _228  and  _229
REMARK   99  A    between atoms: _228  and  _231
REMARK  100  A    between atoms: _231  and  _232
REMARK  101  A    between atoms: _233  and  _235
REMARK  102  A    between atoms: _235  and  _236
REMARK  103  A    between atoms: _239  and  _241
REMARK  104  A    between atoms: _241  and  _242
REMARK  105  A    between atoms: _241  and  _244
REMARK  106  A    between atoms: _244  and  _245
REMARK  107  A    between atoms: _245  and  _246
REMARK  108  A    between atoms: _249  and  _251
REMARK  109  A    between atoms: _251  and  _252
REMARK  110  A    between atoms: _251  and  _254
REMARK  111  A    between atoms: _254  and  _255
REMARK  112  A    between atoms: _261  and  _262
REMARK  113  A    between atoms: _267  and  _269
REMARK  114  A    between atoms: _269  and  _270
REMARK  115  A    between atoms: _272  and  _274
REMARK  116  A    between atoms: _274  and  _275
REMARK  117  A    between atoms: _274  and  _277
REMARK  118  A    between atoms: _280  and  _282
REMARK  119  A    between atoms: _282  and  _283
REMARK  120  A    between atoms: _282  and  _285
REMARK  121  A    between atoms: _285  and  _286
REMARK  122  A    between atoms: _291  and  _292
REMARK                            x       y       z     vdW  Elec       q    Type
REMARK                         _______ _______ _______ _____ _____    ______ ____
ROOT
ATOM      1  O   HOH     1      24.637  23.063  56.898  0.00  0.00    +0.000 OA
ENDROOT
TORSDOF 0
REMARK  Name = ../refined-set-2016/1utl/1utl_pocket.pdb
REMARK  122 active torsions:
REMARK  status: ('A' for Active; 'I' for Inactive)
REMARK    1  A    between atoms: _1  and  _3
REMARK    2  A    between atoms: _3  and  _4
REMARK    3  A    between atoms: _3  and  _6
REMARK    4  A    between atoms: _9  and  _11
REMARK    5  A    between atoms: _11  and  _12
REMARK    6  A    between atoms: _11  and  _14
REMARK    7  A    between atoms: _14  and  _15
REMARK    8  A    between atoms: _15  and  _39
REMARK    9  A    between atoms: _16  and  _18
REMARK   10  A    between atoms: _18  and  _19
REMARK   11  A    between atoms: _22  and  _24
REMARK   12  A    between atoms: _24  and  _25
REMARK   13  A    between atoms: _24  and  _27
REMARK   14  A    between atoms: _27  and  _28
REMARK   15  A    between atoms: _33  and  _35
REMARK   16  A    between atoms: _35  and  _36
REMARK   17  A    between atoms: _35  and  _38
REMARK   18  A    between atoms: _38  and  _39
REMARK   19  A    between atoms: _40  and  _42
REMARK   20  A    between atoms: _42  and  _43
REMARK   21  A    between atoms: _42  and  _45
REMARK   22  A    between atoms: _45  and  _46
REMARK   23  A    between atoms: _49  and  _51
REMARK   24  A    between atoms: _51  and  _52
REMARK   25  A    between atoms: _51  and  _54
REMARK   26  A    between atoms: _54  and  _55
REMARK   27  A    between atoms: _58  and  _60
REMARK   28  A    between atoms: _60  and  _61
REMARK   29  A    between atoms: _60  and  _63
REMARK   30  A    between atoms: _63  and  _64
REMARK   31  A    between atoms: _69  and  _71
REMARK   32  A    between atoms: _71  and  _72
REMARK   33  A    between atoms: _71  and  _74
REMARK   34  A    between atoms: _74  and  _75
REMARK   35  A    between atoms: _80  and  _81
REMARK   36  A    between atoms: _83  and  _85
REMARK   37  A    between atoms: _85  and  _86
REMARK   38  A    between atoms: _89  and  _91
REMARK   39  A    between atoms: _91  and  _92
REMARK   40  A    between atoms: _91  and  _94
REMARK   41  A    between atoms: _94  and  _95
REMARK   42  A    between atoms: _95  and  _96
REMARK   43  A    between atoms: _96  and  _97
REMARK   44  A    between atoms: _97  and  _98
REMARK   45  A    between atoms: _102  and  _104
REMARK   46  A    between atoms: _104  and  _105
REMARK   47  A    between atoms: _104  and  _107
REMARK   48  A    between atoms: _107  and  _108
REMARK   49  A    between atoms: _111  and  _113
REMARK   50  A    between atoms: _113  and  _114
REMARK   51  A    between atoms: _113  and  _116
REMARK   52  A    between atoms: _116  and  _117
REMARK   53  A    between atoms: _119  and  _121
REMARK   54  A    between atoms: _121  and  _122
REMARK   55  A    between atoms: _121  and  _124
REMARK   56  A    between atoms: _124  and  _125
REMARK   57  A    between atoms: _125  and  _232
REMARK   58  A    between atoms: _126  and  _128
REMARK   59  A    between atoms: _128  and  _129
REMARK   60  A    between atoms: _128  and  _131
REMARK   61  A    between atoms: _131  and  _132
REMARK   62  A    between atoms: _132  and  _133
REMARK   63  A    between atoms: _138  and  _140
REMARK   64  A    between atoms: _140  and  _141
REMARK   65  A    between atoms: _143  and  _145
REMARK   66  A    between atoms: _145  and  _146
REMARK   67  A    between atoms: _145  and  _148
REMARK   68  A    between atoms: _148  and  _149
REMARK   69  A    between atoms: _152  and  _154
REMARK   70  A    between atoms: _154  and  _155
REMARK   71  A    between atoms: _154  and  _157
REMARK   72  A    between atoms: _157  and  _158
REMARK   73  A    between atoms: _160  and  _162
REMARK   74  A    between atoms: _162  and  _163
REMARK   75  A    between atoms: _165  and  _167
REMARK   76  A    between atoms: _167  and  _168
REMARK   77  A    between atoms: _170  and  _172
REMARK   78  A    between atoms: _172  and  _173
REMARK   79  A    between atoms: _172  and  _175
REMARK   80  A    between atoms: _178  and  _180
REMARK   81  A    between atoms: _180  and  _181
REMARK   82  A    between atoms: _180  and  _183
REMARK   83  A    between atoms: _183  and  _184
REMARK   84  A    between atoms: _186  and  _188
REMARK   85  A    between atoms: _188  and  _189
REMARK   86  A    between atoms: _188  and  _191
REMARK   87  A    between atoms: _191  and  _192
REMARK   88  A    between atoms: _202  and  _204
REMARK   89  A    between atoms: _204  and  _205
REMARK   90  A    between atoms: _207  and  _209
REMARK   91  A    between atoms: _209  and  _210
REMARK   92  A    between atoms: _209  and  _212
REMARK   93  A    between atoms: _212  and  _213
REMARK   94  A    between atoms: _218  and  _219
REMARK   95  A    between atoms: _221  and  _223
REMARK   96  A    between atoms: _223  and  _224
REMARK   97  A    between atoms: _226  and  _228
REMARK   98  A    between atoms: _228  and  _229
REMARK   99  A    between atoms: _228  and  _231
REMARK  100  A    between atoms: _231  and  _232
REMARK  101  A    between atoms: _233  and  _235
REMARK  102  A    between atoms: _235  and  _236
REMARK  103  A    between atoms: _239  and  _241
REMARK  104  A    between atoms: _241  and  _242
REMARK  105  A    between atoms: _241  and  _244
REMARK  106  A    between atoms: _244  and  _245
REMARK  107  A    between atoms: _245  and  _246
REMARK  108  A    between atoms: _249  and  _251
REMARK  109  A    between atoms: _251  and  _252
REMARK  110  A    between atoms: _251  and  _254
REMARK  111  A    between atoms: _254  and  _255
REMARK  112  A    between atoms: _261  and  _262
REMARK  113  A    between atoms: _267  and  _269
REMARK  114  A    between atoms: _269  and  _270
REMARK  115  A    between atoms: _272  and  _274
REMARK  116  A    between atoms: _274  and  _275
REMARK  117  A    between atoms: _274  and  _277
REMARK  118  A    between atoms: _280  and  _282
REMARK  119  A    between atoms: _282  and  _283
REMARK  120  A    between atoms: _282  and  _285
REMARK  121  A    between atoms: _285  and  _286
REMARK  122  A    between atoms: _291  and  _292
REMARK                            x       y       z     vdW  Elec       q    Type
REMARK                         _______ _______ _______ _____ _____    ______ ____
ROOT
ATOM      1  O   HOH     1      26.309  17.231  56.031  0.00  0.00    +0.000 OA
ENDROOT
TORSDOF 0
