REMARK  Name = ../refined-set-2016/3vje/3vje_pocket.pdb
REMARK  287 active torsions:
REMARK  status: ('A' for Active; 'I' for Inactive)
REMARK    1  A    between atoms: _1  and  _3
REMARK    2  A    between atoms: _3  and  _4
REMARK    3  A    between atoms: _3  and  _6
REMARK    4  A    between atoms: _6  and  _7
REMARK    5  A    between atoms: _10  and  _12
REMARK    6  A    between atoms: _12  and  _13
REMARK    7  A    between atoms: _12  and  _15
REMARK    8  A    between atoms: _15  and  _16
REMARK    9  A    between atoms: _16  and  _17
REMARK   10  A    between atoms: _19  and  _21
REMARK   11  A    between atoms: _21  and  _22
REMARK   12  A    between atoms: _21  and  _24
REMARK   13  A    between atoms: _24  and  _25
REMARK   14  A    between atoms: _25  and  _26
REMARK   15  A    between atoms: _26  and  _27
REMARK   16  A    between atoms: _27  and  _28
REMARK   17  A    between atoms: _32  and  _34
REMARK   18  A    between atoms: _34  and  _35
REMARK   19  A    between atoms: _34  and  _37
REMARK   20  A    between atoms: _37  and  _38
REMARK   21  A    between atoms: _43  and  _45
REMARK   22  A    between atoms: _45  and  _46
REMARK   23  A    between atoms: _45  and  _48
REMARK   24  A    between atoms: _48  and  _49
REMARK   25  A    between atoms: _51  and  _53
REMARK   26  A    between atoms: _53  and  _54
REMARK   27  A    between atoms: _53  and  _56
REMARK   28  A    between atoms: _56  and  _57
REMARK   29  A    between atoms: _57  and  _58
REMARK   30  A    between atoms: _58  and  _59
REMARK   31  A    between atoms: _59  and  _60
REMARK   32  A    between atoms: _64  and  _66
REMARK   33  A    between atoms: _66  and  _67
REMARK   34  A    between atoms: _66  and  _69
REMARK   35  A    between atoms: _69  and  _70
REMARK   36  A    between atoms: _72  and  _74
REMARK   37  A    between atoms: _74  and  _75
REMARK   38  A    between atoms: _74  and  _77
REMARK   39  A    between atoms: _77  and  _78
REMARK   40  A    between atoms: _84  and  _86
REMARK   41  A    between atoms: _86  and  _87
REMARK   42  A    between atoms: _86  and  _89
REMARK   43  A    between atoms: _89  and  _90
REMARK   44  A    between atoms: _92  and  _94
REMARK   45  A    between atoms: _94  and  _95
REMARK   46  A    between atoms: _94  and  _97
REMARK   47  A    between atoms: _97  and  _98
REMARK   48  A    between atoms: _103  and  _104
REMARK   49  A    between atoms: _106  and  _108
REMARK   50  A    between atoms: _108  and  _109
REMARK   51  A    between atoms: _112  and  _114
REMARK   52  A    between atoms: _114  and  _115
REMARK   53  A    between atoms: _114  and  _117
REMARK   54  A    between atoms: _117  and  _118
REMARK   55  A    between atoms: _124  and  _126
REMARK   56  A    between atoms: _126  and  _127
REMARK   57  A    between atoms: _126  and  _129
REMARK   58  A    between atoms: _129  and  _130
REMARK   59  A    between atoms: _133  and  _135
REMARK   60  A    between atoms: _135  and  _136
REMARK   61  A    between atoms: _135  and  _138
REMARK   62  A    between atoms: _138  and  _139
REMARK   63  A    between atoms: _142  and  _144
REMARK   64  A    between atoms: _144  and  _145
REMARK   65  A    between atoms: _148  and  _150
REMARK   66  A    between atoms: _150  and  _151
REMARK   67  A    between atoms: _150  and  _153
REMARK   68  A    between atoms: _156  and  _158
REMARK   69  A    between atoms: _158  and  _159
REMARK   70  A    between atoms: _158  and  _161
REMARK   71  A    between atoms: _161  and  _162
REMARK   72  A    between atoms: _172  and  _174
REMARK   73  A    between atoms: _174  and  _175
REMARK   74  A    between atoms: _178  and  _180
REMARK   75  A    between atoms: _180  and  _181
REMARK   76  A    between atoms: _180  and  _183
REMARK   77  A    between atoms: _183  and  _184
REMARK   78  A    between atoms: _187  and  _189
REMARK   79  A    between atoms: _189  and  _190
REMARK   80  A    between atoms: _189  and  _192
REMARK   81  A    between atoms: _192  and  _193
REMARK   82  A    between atoms: _198  and  _199
REMARK   83  A    between atoms: _201  and  _203
REMARK   84  A    between atoms: _203  and  _204
REMARK   85  A    between atoms: _207  and  _209
REMARK   86  A    between atoms: _209  and  _210
REMARK   87  A    between atoms: _209  and  _212
REMARK   88  A    between atoms: _215  and  _217
REMARK   89  A    between atoms: _217  and  _218
REMARK   90  A    between atoms: _217  and  _220
REMARK   91  A    between atoms: _222  and  _224
REMARK   92  A    between atoms: _224  and  _225
REMARK   93  A    between atoms: _224  and  _227
REMARK   94  A    between atoms: _227  and  _228
REMARK   95  A    between atoms: _228  and  _229
REMARK   96  A    between atoms: _229  and  _230
REMARK   97  A    between atoms: _239  and  _241
REMARK   98  A    between atoms: _241  and  _242
REMARK   99  A    between atoms: _241  and  _244
REMARK  100  A    between atoms: _244  and  _245
REMARK  101  A    between atoms: _245  and  _246
REMARK  102  A    between atoms: _246  and  _247
REMARK  103  A    between atoms: _247  and  _248
REMARK  104  A    between atoms: _252  and  _254
REMARK  105  A    between atoms: _254  and  _255
REMARK  106  A    between atoms: _254  and  _257
REMARK  107  A    between atoms: _257  and  _258
REMARK  108  A    between atoms: _261  and  _263
REMARK  109  A    between atoms: _263  and  _264
REMARK  110  A    between atoms: _263  and  _266
REMARK  111  A    between atoms: _266  and  _267
REMARK  112  A    between atoms: _270  and  _272
REMARK  113  A    between atoms: _272  and  _273
REMARK  114  A    between atoms: _272  and  _275
REMARK  115  A    between atoms: _275  and  _276
REMARK  116  A    between atoms: _279  and  _281
REMARK  117  A    between atoms: _281  and  _282
REMARK  118  A    between atoms: _281  and  _284
REMARK  119  A    between atoms: _284  and  _285
REMARK  120  A    between atoms: _291  and  _293
REMARK  121  A    between atoms: _293  and  _294
REMARK  122  A    between atoms: _293  and  _296
REMARK  123  A    between atoms: _296  and  _297
REMARK  124  A    between atoms: _300  and  _302
REMARK  125  A    between atoms: _302  and  _303
REMARK  126  A    between atoms: _302  and  _305
REMARK  127  A    between atoms: _305  and  _306
REMARK  128  A    between atoms: _309  and  _311
REMARK  129  A    between atoms: _311  and  _312
REMARK  130  A    between atoms: _311  and  _314
REMARK  131  A    between atoms: _314  and  _315
REMARK  132  A    between atoms: _318  and  _320
REMARK  133  A    between atoms: _320  and  _321
REMARK  134  A    between atoms: _320  and  _323
REMARK  135  A    between atoms: _326  and  _328
REMARK  136  A    between atoms: _328  and  _329
REMARK  137  A    between atoms: _328  and  _331
REMARK  138  A    between atoms: _331  and  _332
REMARK  139  A    between atoms: _337  and  _338
REMARK  140  A    between atoms: _340  and  _342
REMARK  141  A    between atoms: _342  and  _343
REMARK  142  A    between atoms: _345  and  _347
REMARK  143  A    between atoms: _347  and  _348
REMARK  144  A    between atoms: _347  and  _350
REMARK  145  A    between atoms: _353  and  _355
REMARK  146  A    between atoms: _355  and  _356
REMARK  147  A    between atoms: _359  and  _361
REMARK  148  A    between atoms: _361  and  _362
REMARK  149  A    between atoms: _361  and  _364
REMARK  150  A    between atoms: _364  and  _365
REMARK  151  A    between atoms: _368  and  _370
REMARK  152  A    between atoms: _370  and  _371
REMARK  153  A    between atoms: _370  and  _373
REMARK  154  A    between atoms: _376  and  _378
REMARK  155  A    between atoms: _378  and  _379
REMARK  156  A    between atoms: _381  and  _383
REMARK  157  A    between atoms: _383  and  _384
REMARK  158  A    between atoms: _383  and  _386
REMARK  159  A    between atoms: _389  and  _391
REMARK  160  A    between atoms: _391  and  _392
REMARK  161  A    between atoms: _391  and  _394
REMARK  162  A    between atoms: _394  and  _395
REMARK  163  A    between atoms: _398  and  _400
REMARK  164  A    between atoms: _400  and  _401
REMARK  165  A    between atoms: _400  and  _403
REMARK  166  A    between atoms: _403  and  _404
REMARK  167  A    between atoms: _407  and  _409
REMARK  168  A    between atoms: _409  and  _410
REMARK  169  A    between atoms: _409  and  _412
REMARK  170  A    between atoms: _412  and  _413
REMARK  171  A    between atoms: _416  and  _418
REMARK  172  A    between atoms: _418  and  _419
REMARK  173  A    between atoms: _418  and  _421
REMARK  174  A    between atoms: _421  and  _422
REMARK  175  A    between atoms: _424  and  _426
REMARK  176  A    between atoms: _426  and  _427
REMARK  177  A    between atoms: _426  and  _429
REMARK  178  A    between atoms: _429  and  _430
REMARK  179  A    between atoms: _433  and  _435
REMARK  180  A    between atoms: _435  and  _436
REMARK  181  A    between atoms: _435  and  _438
REMARK  182  A    between atoms: _438  and  _439
REMARK  183  A    between atoms: _439  and  _440
REMARK  184  A    between atoms: _445  and  _447
REMARK  185  A    between atoms: _447  and  _448
REMARK  186  A    between atoms: _447  and  _450
REMARK  187  A    between atoms: _450  and  _451
REMARK  188  A    between atoms: _454  and  _456
REMARK  189  A    between atoms: _456  and  _457
REMARK  190  A    between atoms: _456  and  _459
REMARK  191  A    between atoms: _459  and  _460
REMARK  192  A    between atoms: _465  and  _467
REMARK  193  A    between atoms: _467  and  _468
REMARK  194  A    between atoms: _467  and  _470
REMARK  195  A    between atoms: _470  and  _471
REMARK  196  A    between atoms: _474  and  _476
REMARK  197  A    between atoms: _476  and  _477
REMARK  198  A    between atoms: _476  and  _479
REMARK  199  A    between atoms: _479  and  _480
REMARK  200  A    between atoms: _480  and  _481
REMARK  201  A    between atoms: _481  and  _482
REMARK  202  A    between atoms: _491  and  _493
REMARK  203  A    between atoms: _493  and  _494
REMARK  204  A    between atoms: _493  and  _496
REMARK  205  A    between atoms: _496  and  _497
REMARK  206  A    between atoms: _500  and  _502
REMARK  207  A    between atoms: _502  and  _503
REMARK  208  A    between atoms: _502  and  _505
REMARK  209  A    between atoms: _505  and  _506
REMARK  210  A    between atoms: _506  and  _507
REMARK  211  A    between atoms: _510  and  _512
REMARK  212  A    between atoms: _512  and  _513
REMARK  213  A    between atoms: _512  and  _515
REMARK  214  A    between atoms: _515  and  _516
REMARK  215  A    between atoms: _522  and  _524
REMARK  216  A    between atoms: _524  and  _525
REMARK  217  A    between atoms: _524  and  _527
REMARK  218  A    between atoms: _527  and  _528
REMARK  219  A    between atoms: _531  and  _533
REMARK  220  A    between atoms: _533  and  _534
REMARK  221  A    between atoms: _533  and  _536
REMARK  222  A    between atoms: _536  and  _537
REMARK  223  A    between atoms: _540  and  _542
REMARK  224  A    between atoms: _542  and  _543
REMARK  225  A    between atoms: _542  and  _545
REMARK  226  A    between atoms: _545  and  _546
REMARK  227  A    between atoms: _546  and  _547
REMARK  228  A    between atoms: _550  and  _552
REMARK  229  A    between atoms: _552  and  _553
REMARK  230  A    between atoms: _552  and  _555
REMARK  231  A    between atoms: _555  and  _556
REMARK  232  A    between atoms: _559  and  _561
REMARK  233  A    between atoms: _561  and  _562
REMARK  234  A    between atoms: _565  and  _567
REMARK  235  A    between atoms: _567  and  _568
REMARK  236  A    between atoms: _571  and  _573
REMARK  237  A    between atoms: _573  and  _574
REMARK  238  A    between atoms: _573  and  _576
REMARK  239  A    between atoms: _576  and  _577
REMARK  240  A    between atoms: _577  and  _578
REMARK  241  A    between atoms: _578  and  _579
REMARK  242  A    between atoms: _588  and  _590
REMARK  243  A    between atoms: _590  and  _591
REMARK  244  A    between atoms: _590  and  _593
REMARK  245  A    between atoms: _593  and  _594
REMARK  246  A    between atoms: _597  and  _599
REMARK  247  A    between atoms: _599  and  _600
REMARK  248  A    between atoms: _603  and  _605
REMARK  249  A    between atoms: _605  and  _606
REMARK  250  A    between atoms: _605  and  _608
REMARK  251  A    between atoms: _608  and  _609
REMARK  252  A    between atoms: _612  and  _614
REMARK  253  A    between atoms: _614  and  _615
REMARK  254  A    between atoms: _614  and  _617
REMARK  255  A    between atoms: _617  and  _618
REMARK  256  A    between atoms: _618  and  _619
REMARK  257  A    between atoms: _622  and  _624
REMARK  258  A    between atoms: _624  and  _625
REMARK  259  A    between atoms: _624  and  _627
REMARK  260  A    between atoms: _627  and  _628
REMARK  261  A    between atoms: _631  and  _633
REMARK  262  A    between atoms: _633  and  _634
REMARK  263  A    between atoms: _633  and  _636
REMARK  264  A    between atoms: _636  and  _637
REMARK  265  A    between atoms: _640  and  _642
REMARK  266  A    between atoms: _642  and  _643
REMARK  267  A    between atoms: _642  and  _645
REMARK  268  A    between atoms: _645  and  _646
REMARK  269  A    between atoms: _646  and  _647
REMARK  270  A    between atoms: _647  and  _648
REMARK  271  A    between atoms: _657  and  _659
REMARK  272  A    between atoms: _659  and  _660
REMARK  273  A    between atoms: _659  and  _662
REMARK  274  A    between atoms: _665  and  _667
REMARK  275  A    between atoms: _667  and  _668
REMARK  276  A    between atoms: _667  and  _670
REMARK  277  A    between atoms: _670  and  _671
REMARK  278  A    between atoms: _677  and  _679
REMARK  279  A    between atoms: _679  and  _680
REMARK  280  A    between atoms: _679  and  _682
REMARK  281  A    between atoms: _685  and  _687
REMARK  282  A    between atoms: _687  and  _688
REMARK  283  A    between atoms: _687  and  _690
REMARK  284  A    between atoms: _690  and  _691
REMARK  285  A    between atoms: _691  and  _692
REMARK  286  A    between atoms: _692  and  _693
REMARK  287  A    between atoms: _693  and  _694
REMARK                            x       y       z     vdW  Elec       q    Type
REMARK                         _______ _______ _______ _____ _____    ______ ____
ROOT
ATOM      1  C   ILE A   1      26.854  -8.225  19.072  0.00  0.00    +0.238 C 
ATOM      2  N   MET A   2      26.439  -9.487  19.116  0.00  0.00    -0.298 N 
ATOM      3  H   MET A   2      26.956 -10.181  19.693  0.00  0.00    +0.150 HD
ATOM      4  O   ILE A   1      26.277  -7.363  18.405  0.00  0.00    -0.274 OA
ENDROOT
BRANCH   1   5
ATOM      5  CA  ILE A   1      28.078  -7.852  19.910  0.00  0.00    +0.145 C 
BRANCH   5   6
ATOM      6  N   ILE A   1      27.982  -8.402  21.255  0.00  0.00    -0.238 NA
ATOM      7  H   ILE A   1      28.714  -9.065  21.582  0.00  0.00    +0.142 HD
ENDBRANCH   5   6
BRANCH   5   8
ATOM      8  CB  ILE A   1      29.398  -8.263  19.221  0.00  0.00    +0.025 C 
ATOM      9  CG2 ILE A   1      29.413  -7.837  17.755  0.00  0.00    +0.002 C 
BRANCH   8  10
ATOM     10  CG1 ILE A   1      30.587  -7.656  19.976  0.00  0.00    +0.002 C 
ATOM     11  CD1 ILE A   1      31.918  -8.248  19.585  0.00  0.00    +0.000 C 
ENDBRANCH   8  10
ENDBRANCH   5   8
ENDBRANCH   1   5
BRANCH   2  12
ATOM     12  CA  MET A   2      25.261  -9.906  18.360  0.00  0.00    +0.138 C 
BRANCH  12  13
ATOM     13  C   MET A   2      23.992  -9.192  18.840  0.00  0.00    +0.227 C 
ATOM     14  O   MET A   2      23.249  -8.632  18.031  0.00  0.00    -0.286 OA
ENDBRANCH  12  13
BRANCH  12  15
ATOM     15  CB  MET A   2      25.074 -11.425  18.398  0.00  0.00    +0.039 C 
BRANCH  15  16
ATOM     16  CG  MET A   2      24.078 -11.942  17.355  0.00  0.00    +0.060 C 
BRANCH  16  17
ATOM     17  SD  MET A   2      24.063 -13.744  17.178  0.00  0.00    -0.139 S 
ATOM     18  CE  MET A   2      23.140 -14.021  15.669  0.00  0.00    +0.069 C 
ENDBRANCH  16  17
ENDBRANCH  15  16
ENDBRANCH  12  15
ENDBRANCH   2  12
TORSDOF 9
REMARK  Name = ../refined-set-2016/3vje/3vje_pocket.pdb
REMARK  287 active torsions:
REMARK  status: ('A' for Active; 'I' for Inactive)
REMARK    1  A    between atoms: _1  and  _3
REMARK    2  A    between atoms: _3  and  _4
REMARK    3  A    between atoms: _3  and  _6
REMARK    4  A    between atoms: _6  and  _7
REMARK    5  A    between atoms: _10  and  _12
REMARK    6  A    between atoms: _12  and  _13
REMARK    7  A    between atoms: _12  and  _15
REMARK    8  A    between atoms: _15  and  _16
REMARK    9  A    between atoms: _16  and  _17
REMARK   10  A    between atoms: _19  and  _21
REMARK   11  A    between atoms: _21  and  _22
REMARK   12  A    between atoms: _21  and  _24
REMARK   13  A    between atoms: _24  and  _25
REMARK   14  A    between atoms: _25  and  _26
REMARK   15  A    between atoms: _26  and  _27
REMARK   16  A    between atoms: _27  and  _28
REMARK   17  A    between atoms: _32  and  _34
REMARK   18  A    between atoms: _34  and  _35
REMARK   19  A    between atoms: _34  and  _37
REMARK   20  A    between atoms: _37  and  _38
REMARK   21  A    between atoms: _43  and  _45
REMARK   22  A    between atoms: _45  and  _46
REMARK   23  A    between atoms: _45  and  _48
REMARK   24  A    between atoms: _48  and  _49
REMARK   25  A    between atoms: _51  and  _53
REMARK   26  A    between atoms: _53  and  _54
REMARK   27  A    between atoms: _53  and  _56
REMARK   28  A    between atoms: _56  and  _57
REMARK   29  A    between atoms: _57  and  _58
REMARK   30  A    between atoms: _58  and  _59
REMARK   31  A    between atoms: _59  and  _60
REMARK   32  A    between atoms: _64  and  _66
REMARK   33  A    between atoms: _66  and  _67
REMARK   34  A    between atoms: _66  and  _69
REMARK   35  A    between atoms: _69  and  _70
REMARK   36  A    between atoms: _72  and  _74
REMARK   37  A    between atoms: _74  and  _75
REMARK   38  A    between atoms: _74  and  _77
REMARK   39  A    between atoms: _77  and  _78
REMARK   40  A    between atoms: _84  and  _86
REMARK   41  A    between atoms: _86  and  _87
REMARK   42  A    between atoms: _86  and  _89
REMARK   43  A    between atoms: _89  and  _90
REMARK   44  A    between atoms: _92  and  _94
REMARK   45  A    between atoms: _94  and  _95
REMARK   46  A    between atoms: _94  and  _97
REMARK   47  A    between atoms: _97  and  _98
REMARK   48  A    between atoms: _103  and  _104
REMARK   49  A    between atoms: _106  and  _108
REMARK   50  A    between atoms: _108  and  _109
REMARK   51  A    between atoms: _112  and  _114
REMARK   52  A    between atoms: _114  and  _115
REMARK   53  A    between atoms: _114  and  _117
REMARK   54  A    between atoms: _117  and  _118
REMARK   55  A    between atoms: _124  and  _126
REMARK   56  A    between atoms: _126  and  _127
REMARK   57  A    between atoms: _126  and  _129
REMARK   58  A    between atoms: _129  and  _130
REMARK   59  A    between atoms: _133  and  _135
REMARK   60  A    between atoms: _135  and  _136
REMARK   61  A    between atoms: _135  and  _138
REMARK   62  A    between atoms: _138  and  _139
REMARK   63  A    between atoms: _142  and  _144
REMARK   64  A    between atoms: _144  and  _145
REMARK   65  A    between atoms: _148  and  _150
REMARK   66  A    between atoms: _150  and  _151
REMARK   67  A    between atoms: _150  and  _153
REMARK   68  A    between atoms: _156  and  _158
REMARK   69  A    between atoms: _158  and  _159
REMARK   70  A    between atoms: _158  and  _161
REMARK   71  A    between atoms: _161  and  _162
REMARK   72  A    between atoms: _172  and  _174
REMARK   73  A    between atoms: _174  and  _175
REMARK   74  A    between atoms: _178  and  _180
REMARK   75  A    between atoms: _180  and  _181
REMARK   76  A    between atoms: _180  and  _183
REMARK   77  A    between atoms: _183  and  _184
REMARK   78  A    between atoms: _187  and  _189
REMARK   79  A    between atoms: _189  and  _190
REMARK   80  A    between atoms: _189  and  _192
REMARK   81  A    between atoms: _192  and  _193
REMARK   82  A    between atoms: _198  and  _199
REMARK   83  A    between atoms: _201  and  _203
REMARK   84  A    between atoms: _203  and  _204
REMARK   85  A    between atoms: _207  and  _209
REMARK   86  A    between atoms: _209  and  _210
REMARK   87  A    between atoms: _209  and  _212
REMARK   88  A    between atoms: _215  and  _217
REMARK   89  A    between atoms: _217  and  _218
REMARK   90  A    between atoms: _217  and  _220
REMARK   91  A    between atoms: _222  and  _224
REMARK   92  A    between atoms: _224  and  _225
REMARK   93  A    between atoms: _224  and  _227
REMARK   94  A    between atoms: _227  and  _228
REMARK   95  A    between atoms: _228  and  _229
REMARK   96  A    between atoms: _229  and  _230
REMARK   97  A    between atoms: _239  and  _241
REMARK   98  A    between atoms: _241  and  _242
REMARK   99  A    between atoms: _241  and  _244
REMARK  100  A    between atoms: _244  and  _245
REMARK  101  A    between atoms: _245  and  _246
REMARK  102  A    between atoms: _246  and  _247
REMARK  103  A    between atoms: _247  and  _248
REMARK  104  A    between atoms: _252  and  _254
REMARK  105  A    between atoms: _254  and  _255
REMARK  106  A    between atoms: _254  and  _257
REMARK  107  A    between atoms: _257  and  _258
REMARK  108  A    between atoms: _261  and  _263
REMARK  109  A    between atoms: _263  and  _264
REMARK  110  A    between atoms: _263  and  _266
REMARK  111  A    between atoms: _266  and  _267
REMARK  112  A    between atoms: _270  and  _272
REMARK  113  A    between atoms: _272  and  _273
REMARK  114  A    between atoms: _272  and  _275
REMARK  115  A    between atoms: _275  and  _276
REMARK  116  A    between atoms: _279  and  _281
REMARK  117  A    between atoms: _281  and  _282
REMARK  118  A    between atoms: _281  and  _284
REMARK  119  A    between atoms: _284  and  _285
REMARK  120  A    between atoms: _291  and  _293
REMARK  121  A    between atoms: _293  and  _294
REMARK  122  A    between atoms: _293  and  _296
REMARK  123  A    between atoms: _296  and  _297
REMARK  124  A    between atoms: _300  and  _302
REMARK  125  A    between atoms: _302  and  _303
REMARK  126  A    between atoms: _302  and  _305
REMARK  127  A    between atoms: _305  and  _306
REMARK  128  A    between atoms: _309  and  _311
REMARK  129  A    between atoms: _311  and  _312
REMARK  130  A    between atoms: _311  and  _314
REMARK  131  A    between atoms: _314  and  _315
REMARK  132  A    between atoms: _318  and  _320
REMARK  133  A    between atoms: _320  and  _321
REMARK  134  A    between atoms: _320  and  _323
REMARK  135  A    between atoms: _326  and  _328
REMARK  136  A    between atoms: _328  and  _329
REMARK  137  A    between atoms: _328  and  _331
REMARK  138  A    between atoms: _331  and  _332
REMARK  139  A    between atoms: _337  and  _338
REMARK  140  A    between atoms: _340  and  _342
REMARK  141  A    between atoms: _342  and  _343
REMARK  142  A    between atoms: _345  and  _347
REMARK  143  A    between atoms: _347  and  _348
REMARK  144  A    between atoms: _347  and  _350
REMARK  145  A    between atoms: _353  and  _355
REMARK  146  A    between atoms: _355  and  _356
REMARK  147  A    between atoms: _359  and  _361
REMARK  148  A    between atoms: _361  and  _362
REMARK  149  A    between atoms: _361  and  _364
REMARK  150  A    between atoms: _364  and  _365
REMARK  151  A    between atoms: _368  and  _370
REMARK  152  A    between atoms: _370  and  _371
REMARK  153  A    between atoms: _370  and  _373
REMARK  154  A    between atoms: _376  and  _378
REMARK  155  A    between atoms: _378  and  _379
REMARK  156  A    between atoms: _381  and  _383
REMARK  157  A    between atoms: _383  and  _384
REMARK  158  A    between atoms: _383  and  _386
REMARK  159  A    between atoms: _389  and  _391
REMARK  160  A    between atoms: _391  and  _392
REMARK  161  A    between atoms: _391  and  _394
REMARK  162  A    between atoms: _394  and  _395
REMARK  163  A    between atoms: _398  and  _400
REMARK  164  A    between atoms: _400  and  _401
REMARK  165  A    between atoms: _400  and  _403
REMARK  166  A    between atoms: _403  and  _404
REMARK  167  A    between atoms: _407  and  _409
REMARK  168  A    between atoms: _409  and  _410
REMARK  169  A    between atoms: _409  and  _412
REMARK  170  A    between atoms: _412  and  _413
REMARK  171  A    between atoms: _416  and  _418
REMARK  172  A    between atoms: _418  and  _419
REMARK  173  A    between atoms: _418  and  _421
REMARK  174  A    between atoms: _421  and  _422
REMARK  175  A    between atoms: _424  and  _426
REMARK  176  A    between atoms: _426  and  _427
REMARK  177  A    between atoms: _426  and  _429
REMARK  178  A    between atoms: _429  and  _430
REMARK  179  A    between atoms: _433  and  _435
REMARK  180  A    between atoms: _435  and  _436
REMARK  181  A    between atoms: _435  and  _438
REMARK  182  A    between atoms: _438  and  _439
REMARK  183  A    between atoms: _439  and  _440
REMARK  184  A    between atoms: _445  and  _447
REMARK  185  A    between atoms: _447  and  _448
REMARK  186  A    between atoms: _447  and  _450
REMARK  187  A    between atoms: _450  and  _451
REMARK  188  A    between atoms: _454  and  _456
REMARK  189  A    between atoms: _456  and  _457
REMARK  190  A    between atoms: _456  and  _459
REMARK  191  A    between atoms: _459  and  _460
REMARK  192  A    between atoms: _465  and  _467
REMARK  193  A    between atoms: _467  and  _468
REMARK  194  A    between atoms: _467  and  _470
REMARK  195  A    between atoms: _470  and  _471
REMARK  196  A    between atoms: _474  and  _476
REMARK  197  A    between atoms: _476  and  _477
REMARK  198  A    between atoms: _476  and  _479
REMARK  199  A    between atoms: _479  and  _480
REMARK  200  A    between atoms: _480  and  _481
REMARK  201  A    between atoms: _481  and  _482
REMARK  202  A    between atoms: _491  and  _493
REMARK  203  A    between atoms: _493  and  _494
REMARK  204  A    between atoms: _493  and  _496
REMARK  205  A    between atoms: _496  and  _497
REMARK  206  A    between atoms: _500  and  _502
REMARK  207  A    between atoms: _502  and  _503
REMARK  208  A    between atoms: _502  and  _505
REMARK  209  A    between atoms: _505  and  _506
REMARK  210  A    between atoms: _506  and  _507
REMARK  211  A    between atoms: _510  and  _512
REMARK  212  A    between atoms: _512  and  _513
REMARK  213  A    between atoms: _512  and  _515
REMARK  214  A    between atoms: _515  and  _516
REMARK  215  A    between atoms: _522  and  _524
REMARK  216  A    between atoms: _524  and  _525
REMARK  217  A    between atoms: _524  and  _527
REMARK  218  A    between atoms: _527  and  _528
REMARK  219  A    between atoms: _531  and  _533
REMARK  220  A    between atoms: _533  and  _534
REMARK  221  A    between atoms: _533  and  _536
REMARK  222  A    between atoms: _536  and  _537
REMARK  223  A    between atoms: _540  and  _542
REMARK  224  A    between atoms: _542  and  _543
REMARK  225  A    between atoms: _542  and  _545
REMARK  226  A    between atoms: _545  and  _546
REMARK  227  A    between atoms: _546  and  _547
REMARK  228  A    between atoms: _550  and  _552
REMARK  229  A    between atoms: _552  and  _553
REMARK  230  A    between atoms: _552  and  _555
REMARK  231  A    between atoms: _555  and  _556
REMARK  232  A    between atoms: _559  and  _561
REMARK  233  A    between atoms: _561  and  _562
REMARK  234  A    between atoms: _565  and  _567
REMARK  235  A    between atoms: _567  and  _568
REMARK  236  A    between atoms: _571  and  _573
REMARK  237  A    between atoms: _573  and  _574
REMARK  238  A    between atoms: _573  and  _576
REMARK  239  A    between atoms: _576  and  _577
REMARK  240  A    between atoms: _577  and  _578
REMARK  241  A    between atoms: _578  and  _579
REMARK  242  A    between atoms: _588  and  _590
REMARK  243  A    between atoms: _590  and  _591
REMARK  244  A    between atoms: _590  and  _593
REMARK  245  A    between atoms: _593  and  _594
REMARK  246  A    between atoms: _597  and  _599
REMARK  247  A    between atoms: _599  and  _600
REMARK  248  A    between atoms: _603  and  _605
REMARK  249  A    between atoms: _605  and  _606
REMARK  250  A    between atoms: _605  and  _608
REMARK  251  A    between atoms: _608  and  _609
REMARK  252  A    between atoms: _612  and  _614
REMARK  253  A    between atoms: _614  and  _615
REMARK  254  A    between atoms: _614  and  _617
REMARK  255  A    between atoms: _617  and  _618
REMARK  256  A    between atoms: _618  and  _619
REMARK  257  A    between atoms: _622  and  _624
REMARK  258  A    between atoms: _624  and  _625
REMARK  259  A    between atoms: _624  and  _627
REMARK  260  A    between atoms: _627  and  _628
REMARK  261  A    between atoms: _631  and  _633
REMARK  262  A    between atoms: _633  and  _634
REMARK  263  A    between atoms: _633  and  _636
REMARK  264  A    between atoms: _636  and  _637
REMARK  265  A    between atoms: _640  and  _642
REMARK  266  A    between atoms: _642  and  _643
REMARK  267  A    between atoms: _642  and  _645
REMARK  268  A    between atoms: _645  and  _646
REMARK  269  A    between atoms: _646  and  _647
REMARK  270  A    between atoms: _647  and  _648
REMARK  271  A    between atoms: _657  and  _659
REMARK  272  A    between atoms: _659  and  _660
REMARK  273  A    between atoms: _659  and  _662
REMARK  274  A    between atoms: _665  and  _667
REMARK  275  A    between atoms: _667  and  _668
REMARK  276  A    between atoms: _667  and  _670
REMARK  277  A    between atoms: _670  and  _671
REMARK  278  A    between atoms: _677  and  _679
REMARK  279  A    between atoms: _679  and  _680
REMARK  280  A    between atoms: _679  and  _682
REMARK  281  A    between atoms: _685  and  _687
REMARK  282  A    between atoms: _687  and  _688
REMARK  283  A    between atoms: _687  and  _690
REMARK  284  A    between atoms: _690  and  _691
REMARK  285  A    between atoms: _691  and  _692
REMARK  286  A    between atoms: _692  and  _693
REMARK  287  A    between atoms: _693  and  _694
REMARK                            x       y       z     vdW  Elec       q    Type
REMARK                         _______ _______ _______ _____ _____    ______ ____
ROOT
ATOM      1  CA  PHE A   6      19.155 -12.605  13.243  0.00  0.00    +0.153 C 
ENDROOT
BRANCH   1   4
ATOM      2  C   SER A   5      17.267 -11.074  13.307  0.00  0.00    +0.243 C 
ATOM      3  O   SER A   5      16.563 -11.975  13.761  0.00  0.00    -0.273 OA
ATOM      4  N   PHE A   6      18.547 -11.282  13.014  0.00  0.00    -0.297 N 
ATOM      5  H   PHE A   6      19.121 -10.509  12.622  0.00  0.00    +0.150 HD
BRANCH   2   6
ATOM      6  CA  SER A   5      16.665  -9.669  13.103  0.00  0.00    +0.178 C 
BRANCH   6   9
ATOM      7  C   LYS A   4      16.853  -7.765  14.644  0.00  0.00    +0.241 C 
ATOM      8  O   LYS A   4      15.740  -7.954  15.135  0.00  0.00    -0.273 OA
ATOM      9  N   SER A   5      17.394  -8.560  13.720  0.00  0.00    -0.295 N 
ATOM     10  H   SER A   5      18.376  -8.384  13.425  0.00  0.00    +0.150 HD
BRANCH   7  11
ATOM     11  CA  LYS A   4      17.713  -6.602  15.133  0.00  0.00    +0.149 C 
BRANCH  11  14
ATOM     12  C   SER A   3      19.838  -7.610  15.683  0.00  0.00    +0.243 C 
ATOM     13  O   SER A   3      19.364  -8.149  16.689  0.00  0.00    -0.273 OA
ATOM     14  N   LYS A   4      19.129  -6.840  14.864  0.00  0.00    -0.297 N 
ATOM     15  H   LYS A   4      19.581  -6.408  14.033  0.00  0.00    +0.150 HD
BRANCH  12  16
ATOM     16  CA  SER A   3      21.300  -7.797  15.319  0.00  0.00    +0.178 C 
BRANCH  16  18
ATOM     17  C   HIS A   2      22.406  -5.690  15.713  0.00  0.00    +0.241 C 
ATOM     18  N   SER A   3      22.140  -6.927  16.123  0.00  0.00    -0.295 N 
ATOM     19  H   SER A   3      22.534  -7.272  17.021  0.00  0.00    +0.150 HD
ATOM     20  O   HIS A   2      21.882  -5.188  14.710  0.00  0.00    -0.273 OA
BRANCH  17  21
ATOM     21  CA  HIS A   2      23.455  -4.919  16.518  0.00  0.00    +0.155 C 
BRANCH  21  24
ATOM     22  C   LYS A   1      23.012  -4.557  18.904  0.00  0.00    +0.238 C 
ATOM     23  O   LYS A   1      22.242  -3.618  18.691  0.00  0.00    -0.274 OA
ATOM     24  N   HIS A   2      23.554  -5.290  17.932  0.00  0.00    -0.297 N 
ATOM     25  H   HIS A   2      24.067  -6.158  18.187  0.00  0.00    +0.150 HD
BRANCH  22  26
ATOM     26  CA  LYS A   1      23.357  -4.945  20.343  0.00  0.00    +0.145 C 
BRANCH  26  27
ATOM     27  N   LYS A   1      23.462  -6.386  20.541  0.00  0.00    -0.238 NA
ATOM     28  H   LYS A   1      24.396  -6.824  20.669  0.00  0.00    +0.142 HD
ENDBRANCH  26  27
BRANCH  26  29
ATOM     29  CB  LYS A   1      24.608  -4.212  20.836  0.00  0.00    +0.026 C 
BRANCH  29  30
ATOM     30  CG  LYS A   1      25.902  -4.514  20.078  0.00  0.00    -0.000 C 
BRANCH  30  31
ATOM     31  CD  LYS A   1      27.068  -3.679  20.618  0.00  0.00    -0.024 C 
BRANCH  31  32
ATOM     32  CE  LYS A   1      26.926  -2.205  20.245  0.00  0.00    -0.086 C 
BRANCH  32  33
ATOM     33  NZ  LYS A   1      27.925  -1.321  20.932  0.00  0.00    +0.380 N 
ATOM     34  HZ1 LYS A   1      27.803  -1.398  21.962  0.00  0.00    -0.089 HD
ATOM     35  HZ2 LYS A   1      28.887  -1.620  20.672  0.00  0.00    -0.089 HD
ATOM     36  HZ3 LYS A   1      27.775  -0.335  20.636  0.00  0.00    -0.089 HD
ENDBRANCH  32  33
ENDBRANCH  31  32
ENDBRANCH  30  31
ENDBRANCH  29  30
ENDBRANCH  26  29
ENDBRANCH  22  26
ENDBRANCH  21  24
BRANCH  21  37
ATOM     37  CB  HIS A   2      24.806  -5.135  15.835  0.00  0.00    +0.076 C 
BRANCH  37  38
ATOM     38  CG  HIS A   2      25.837  -4.108  16.178  0.00  0.00    +0.082 A 
ATOM     39  ND1 HIS A   2      26.969  -4.407  16.905  0.00  0.00    -0.227 NA
ATOM     40  CE1 HIS A   2      27.703  -3.316  17.039  0.00  0.00    +0.199 A 
ATOM     41  NE2 HIS A   2      27.087  -2.320  16.424  0.00  0.00    -0.221 NA
ATOM     42  CD2 HIS A   2      25.923  -2.792  15.870  0.00  0.00    +0.115 A 
ENDBRANCH  37  38
ENDBRANCH  21  37
ENDBRANCH  17  21
ENDBRANCH  16  18
BRANCH  16  43
ATOM     43  CB  SER A   3      21.703  -9.258  15.495  0.00  0.00    +0.166 C 
BRANCH  43  44
ATOM     44  OG  SER A   3      20.984 -10.066  14.594  0.00  0.00    -0.380 OA
ATOM     45  H   SER A   3      21.183  -9.782  13.667  0.00  0.00    +0.211 HD
ENDBRANCH  43  44
ENDBRANCH  16  43
ENDBRANCH  12  16
ENDBRANCH  11  14
BRANCH  11  46
ATOM     46  CB  LYS A   4      17.244  -5.264  14.546  0.00  0.00    +0.029 C 
BRANCH  46  47
ATOM     47  CG  LYS A   4      17.895  -4.043  15.207  0.00  0.00    +0.000 C 
BRANCH  47  48
ATOM     48  CD  LYS A   4      17.323  -2.706  14.720  0.00  0.00    -0.024 C 
BRANCH  48  49
ATOM     49  CE  LYS A   4      17.528  -2.478  13.224  0.00  0.00    -0.086 C 
BRANCH  49  50
ATOM     50  NZ  LYS A   4      18.928  -2.761  12.771  0.00  0.00    +0.380 N 
ATOM     51  HZ1 LYS A   4      19.588  -2.137  13.278  0.00  0.00    -0.089 HD
ATOM     52  HZ2 LYS A   4      19.163  -3.754  12.973  0.00  0.00    -0.089 HD
ATOM     53  HZ3 LYS A   4      19.002  -2.588  11.748  0.00  0.00    -0.089 HD
ENDBRANCH  49  50
ENDBRANCH  48  49
ENDBRANCH  47  48
ENDBRANCH  46  47
ENDBRANCH  11  46
ENDBRANCH   7  11
ENDBRANCH   6   9
BRANCH   6  54
ATOM     54  CB  SER A   5      16.404  -9.364  11.622  0.00  0.00    +0.166 C 
BRANCH  54  55
ATOM     55  OG  SER A   5      15.513  -8.253  11.495  0.00  0.00    -0.380 OA
ATOM     56  H   SER A   5      15.353  -8.067  10.536  0.00  0.00    +0.211 HD
ENDBRANCH  54  55
ENDBRANCH   6  54
ENDBRANCH   2   6
ENDBRANCH   1   4
BRANCH   1  57
ATOM     57  C   PHE A   6      19.124 -13.092  14.699  0.00  0.00    +0.241 C 
ATOM     58  N   SER A   7      19.242 -12.153  15.635  0.00  0.00    -0.295 N 
ATOM     59  H   SER A   7      19.227 -11.155  15.343  0.00  0.00    +0.150 HD
ATOM     60  O   PHE A   6      19.009 -14.295  14.963  0.00  0.00    -0.273 OA
BRANCH  58  61
ATOM     61  CA  SER A   7      19.392 -12.464  17.058  0.00  0.00    +0.178 C 
BRANCH  61  62
ATOM     62  C   SER A   7      18.241 -13.267  17.659  0.00  0.00    +0.243 C 
ATOM     63  O   SER A   7      18.464 -14.174  18.454  0.00  0.00    -0.273 OA
ATOM     64  N   TYR A   8      17.015 -12.930  17.281  0.00  0.00    -0.297 N 
ATOM     65  H   TYR A   8      16.886 -12.138  16.620  0.00  0.00    +0.150 HD
BRANCH  64  66
ATOM     66  CA  TYR A   8      15.843 -13.648  17.774  0.00  0.00    +0.153 C 
BRANCH  66  67
ATOM     67  C   TYR A   8      15.881 -15.123  17.374  0.00  0.00    +0.241 C 
ATOM     68  O   TYR A   8      15.666 -16.000  18.218  0.00  0.00    -0.273 OA
ATOM     69  N   ALA A   9      16.175 -15.379  16.100  0.00  0.00    -0.297 N 
ATOM     70  H   ALA A   9      16.403 -14.586  15.467  0.00  0.00    +0.150 HD
BRANCH  69  71
ATOM     71  CA  ALA A   9      16.187 -16.738  15.563  0.00  0.00    +0.149 C 
ATOM     72  CB  ALA A   9      16.326 -16.697  14.049  0.00  0.00    +0.031 C 
BRANCH  71  73
ATOM     73  C   ALA A   9      17.294 -17.606  16.153  0.00  0.00    +0.241 C 
ATOM     74  O   ALA A   9      17.063 -18.739  16.591  0.00  0.00    -0.273 OA
ATOM     75  N   PHE A  10      18.503 -17.059  16.160  0.00  0.00    -0.297 N 
ATOM     76  H   PHE A  10      18.614 -16.048  15.944  0.00  0.00    +0.150 HD
BRANCH  75  77
ATOM     77  CA  PHE A  10      19.674 -17.864  16.467  0.00  0.00    +0.153 C 
BRANCH  77  78
ATOM     78  C   PHE A  10      19.727 -18.217  17.950  0.00  0.00    +0.241 C 
ATOM     79  N   ASP A  11      19.144 -17.359  18.779  0.00  0.00    -0.297 N 
ATOM     80  H   ASP A  11      18.772 -16.464  18.402  0.00  0.00    +0.150 HD
ATOM     81  O   PHE A  10      20.216 -19.274  18.329  0.00  0.00    -0.273 OA
BRANCH  79  82
ATOM     82  CA  ASP A  11      19.012 -17.638  20.200  0.00  0.00    +0.160 C 
BRANCH  82  83
ATOM     83  C   ASP A  11      17.894 -18.638  20.527  0.00  0.00    +0.241 C 
ATOM     84  O   ASP A  11      17.761 -19.082  21.666  0.00  0.00    -0.273 OA
ATOM     85  N   LEU A  12      17.110 -19.024  19.524  0.00  0.00    -0.298 N 
ATOM     86  H   LEU A  12      17.148 -18.507  18.622  0.00  0.00    +0.150 HD
BRANCH  85  87
ATOM     87  CA  LEU A  12      16.195 -20.159  19.659  0.00  0.00    +0.137 C 
BRANCH  87  88
ATOM     88  C   LEU A  12      16.915 -21.508  19.583  0.00  0.00    +0.227 C 
ATOM     89  O   LEU A  12      16.338 -22.531  19.938  0.00  0.00    -0.286 OA
ENDBRANCH  87  88
BRANCH  87  90
ATOM     90  CB  LEU A  12      15.111 -20.096  18.580  0.00  0.00    +0.028 C 
BRANCH  90  91
ATOM     91  CG  LEU A  12      13.789 -19.360  18.802  0.00  0.00    +0.002 C 
ATOM     92  CD2 LEU A  12      13.698 -18.573  20.109  0.00  0.00    +0.000 C 
ATOM     93  CD1 LEU A  12      13.507 -18.482  17.602  0.00  0.00    +0.000 C 
ENDBRANCH  90  91
ENDBRANCH  87  90
ENDBRANCH  85  87
ENDBRANCH  82  83
BRANCH  82  94
ATOM     94  CB  ASP A  11      18.901 -16.322  20.983  0.00  0.00    +0.143 C 
BRANCH  94  95
ATOM     95  CG  ASP A  11      20.183 -15.478  20.898  0.00  0.00    +0.367 C 
ATOM     96  OD2 ASP A  11      20.095 -14.239  21.043  0.00  0.00    -0.246 OA
ATOM     97  OD1 ASP A  11      21.287 -16.035  20.685  0.00  0.00    -0.246 OA
ENDBRANCH  94  95
ENDBRANCH  82  94
ENDBRANCH  79  82
ENDBRANCH  77  78
BRANCH  77  98
ATOM     98  CB  PHE A  10      20.948 -17.189  15.937  0.00  0.00    +0.055 C 
BRANCH  98  99
ATOM     99  CG  PHE A  10      21.187 -17.430  14.466  0.00  0.00    -0.020 A 
ATOM    100  CD2 PHE A  10      21.143 -18.721  13.940  0.00  0.00    -0.004 A 
ATOM    101  CE2 PHE A  10      21.368 -18.968  12.583  0.00  0.00    -0.000 A 
ATOM    102  CZ  PHE A  10      21.647 -17.915  11.736  0.00  0.00    -0.000 A 
ATOM    103  CE1 PHE A  10      21.707 -16.616  12.249  0.00  0.00    -0.000 A 
ATOM    104  CD1 PHE A  10      21.473 -16.380  13.608  0.00  0.00    -0.004 A 
ENDBRANCH  98  99
ENDBRANCH  77  98
ENDBRANCH  75  77
ENDBRANCH  71  73
ENDBRANCH  69  71
ENDBRANCH  66  67
BRANCH  66 105
ATOM    105  CB  TYR A   8      14.543 -12.982  17.301  0.00  0.00    +0.055 C 
BRANCH 105 106
ATOM    106  CG  TYR A   8      13.317 -13.840  17.508  0.00  0.00    -0.020 A 
ATOM    107  CD2 TYR A   8      12.641 -13.835  18.724  0.00  0.00    -0.001 A 
ATOM    108  CE2 TYR A   8      11.521 -14.625  18.921  0.00  0.00    +0.036 A 
ATOM    109  CZ  TYR A   8      11.069 -15.434  17.897  0.00  0.00    +0.134 A 
ATOM    110  CE1 TYR A   8      11.721 -15.457  16.681  0.00  0.00    +0.036 A 
ATOM    111  CD1 TYR A   8      12.838 -14.659  16.490  0.00  0.00    -0.001 A 
BRANCH 109 112
ATOM    112  OH  TYR A   8       9.962 -16.224  18.091  0.00  0.00    -0.506 OA
ATOM    113  HH  TYR A   8       9.618 -16.089  19.010  0.00  0.00    +0.292 HD
ENDBRANCH 109 112
ENDBRANCH 105 106
ENDBRANCH  66 105
ENDBRANCH  64  66
ENDBRANCH  61  62
BRANCH  61 114
ATOM    114  CB  SER A   7      19.570 -11.178  17.859  0.00  0.00    +0.166 C 
BRANCH 114 115
ATOM    115  OG  SER A   7      20.300 -11.450  19.037  0.00  0.00    -0.380 OA
ATOM    116  H   SER A   7      19.808 -12.113  19.583  0.00  0.00    +0.211 HD
ENDBRANCH 114 115
ENDBRANCH  61 114
ENDBRANCH  58  61
ENDBRANCH   1  57
BRANCH   1 117
ATOM    117  CB  PHE A   6      20.600 -12.660  12.730  0.00  0.00    +0.055 C 
BRANCH 117 118
ATOM    118  CG  PHE A   6      20.719 -12.793  11.233  0.00  0.00    -0.020 A 
ATOM    119  CD2 PHE A   6      20.290 -13.947  10.585  0.00  0.00    -0.004 A 
ATOM    120  CE2 PHE A   6      20.410 -14.073   9.211  0.00  0.00    -0.000 A 
ATOM    121  CZ  PHE A   6      20.973 -13.053   8.462  0.00  0.00    -0.000 A 
ATOM    122  CE1 PHE A   6      21.411 -11.897   9.097  0.00  0.00    -0.000 A 
ATOM    123  CD1 PHE A   6      21.289 -11.777  10.480  0.00  0.00    -0.004 A 
ENDBRANCH 117 118
ENDBRANCH   1 117
TORSDOF 53
REMARK  Name = ../refined-set-2016/3vje/3vje_pocket.pdb
REMARK  287 active torsions:
REMARK  status: ('A' for Active; 'I' for Inactive)
REMARK    1  A    between atoms: _1  and  _3
REMARK    2  A    between atoms: _3  and  _4
REMARK    3  A    between atoms: _3  and  _6
REMARK    4  A    between atoms: _6  and  _7
REMARK    5  A    between atoms: _10  and  _12
REMARK    6  A    between atoms: _12  and  _13
REMARK    7  A    between atoms: _12  and  _15
REMARK    8  A    between atoms: _15  and  _16
REMARK    9  A    between atoms: _16  and  _17
REMARK   10  A    between atoms: _19  and  _21
REMARK   11  A    between atoms: _21  and  _22
REMARK   12  A    between atoms: _21  and  _24
REMARK   13  A    between atoms: _24  and  _25
REMARK   14  A    between atoms: _25  and  _26
REMARK   15  A    between atoms: _26  and  _27
REMARK   16  A    between atoms: _27  and  _28
REMARK   17  A    between atoms: _32  and  _34
REMARK   18  A    between atoms: _34  and  _35
REMARK   19  A    between atoms: _34  and  _37
REMARK   20  A    between atoms: _37  and  _38
REMARK   21  A    between atoms: _43  and  _45
REMARK   22  A    between atoms: _45  and  _46
REMARK   23  A    between atoms: _45  and  _48
REMARK   24  A    between atoms: _48  and  _49
REMARK   25  A    between atoms: _51  and  _53
REMARK   26  A    between atoms: _53  and  _54
REMARK   27  A    between atoms: _53  and  _56
REMARK   28  A    between atoms: _56  and  _57
REMARK   29  A    between atoms: _57  and  _58
REMARK   30  A    between atoms: _58  and  _59
REMARK   31  A    between atoms: _59  and  _60
REMARK   32  A    between atoms: _64  and  _66
REMARK   33  A    between atoms: _66  and  _67
REMARK   34  A    between atoms: _66  and  _69
REMARK   35  A    between atoms: _69  and  _70
REMARK   36  A    between atoms: _72  and  _74
REMARK   37  A    between atoms: _74  and  _75
REMARK   38  A    between atoms: _74  and  _77
REMARK   39  A    between atoms: _77  and  _78
REMARK   40  A    between atoms: _84  and  _86
REMARK   41  A    between atoms: _86  and  _87
REMARK   42  A    between atoms: _86  and  _89
REMARK   43  A    between atoms: _89  and  _90
REMARK   44  A    between atoms: _92  and  _94
REMARK   45  A    between atoms: _94  and  _95
REMARK   46  A    between atoms: _94  and  _97
REMARK   47  A    between atoms: _97  and  _98
REMARK   48  A    between atoms: _103  and  _104
REMARK   49  A    between atoms: _106  and  _108
REMARK   50  A    between atoms: _108  and  _109
REMARK   51  A    between atoms: _112  and  _114
REMARK   52  A    between atoms: _114  and  _115
REMARK   53  A    between atoms: _114  and  _117
REMARK   54  A    between atoms: _117  and  _118
REMARK   55  A    between atoms: _124  and  _126
REMARK   56  A    between atoms: _126  and  _127
REMARK   57  A    between atoms: _126  and  _129
REMARK   58  A    between atoms: _129  and  _130
REMARK   59  A    between atoms: _133  and  _135
REMARK   60  A    between atoms: _135  and  _136
REMARK   61  A    between atoms: _135  and  _138
REMARK   62  A    between atoms: _138  and  _139
REMARK   63  A    between atoms: _142  and  _144
REMARK   64  A    between atoms: _144  and  _145
REMARK   65  A    between atoms: _148  and  _150
REMARK   66  A    between atoms: _150  and  _151
REMARK   67  A    between atoms: _150  and  _153
REMARK   68  A    between atoms: _156  and  _158
REMARK   69  A    between atoms: _158  and  _159
REMARK   70  A    between atoms: _158  and  _161
REMARK   71  A    between atoms: _161  and  _162
REMARK   72  A    between atoms: _172  and  _174
REMARK   73  A    between atoms: _174  and  _175
REMARK   74  A    between atoms: _178  and  _180
REMARK   75  A    between atoms: _180  and  _181
REMARK   76  A    between atoms: _180  and  _183
REMARK   77  A    between atoms: _183  and  _184
REMARK   78  A    between atoms: _187  and  _189
REMARK   79  A    between atoms: _189  and  _190
REMARK   80  A    between atoms: _189  and  _192
REMARK   81  A    between atoms: _192  and  _193
REMARK   82  A    between atoms: _198  and  _199
REMARK   83  A    between atoms: _201  and  _203
REMARK   84  A    between atoms: _203  and  _204
REMARK   85  A    between atoms: _207  and  _209
REMARK   86  A    between atoms: _209  and  _210
REMARK   87  A    between atoms: _209  and  _212
REMARK   88  A    between atoms: _215  and  _217
REMARK   89  A    between atoms: _217  and  _218
REMARK   90  A    between atoms: _217  and  _220
REMARK   91  A    between atoms: _222  and  _224
REMARK   92  A    between atoms: _224  and  _225
REMARK   93  A    between atoms: _224  and  _227
REMARK   94  A    between atoms: _227  and  _228
REMARK   95  A    between atoms: _228  and  _229
REMARK   96  A    between atoms: _229  and  _230
REMARK   97  A    between atoms: _239  and  _241
REMARK   98  A    between atoms: _241  and  _242
REMARK   99  A    between atoms: _241  and  _244
REMARK  100  A    between atoms: _244  and  _245
REMARK  101  A    between atoms: _245  and  _246
REMARK  102  A    between atoms: _246  and  _247
REMARK  103  A    between atoms: _247  and  _248
REMARK  104  A    between atoms: _252  and  _254
REMARK  105  A    between atoms: _254  and  _255
REMARK  106  A    between atoms: _254  and  _257
REMARK  107  A    between atoms: _257  and  _258
REMARK  108  A    between atoms: _261  and  _263
REMARK  109  A    between atoms: _263  and  _264
REMARK  110  A    between atoms: _263  and  _266
REMARK  111  A    between atoms: _266  and  _267
REMARK  112  A    between atoms: _270  and  _272
REMARK  113  A    between atoms: _272  and  _273
REMARK  114  A    between atoms: _272  and  _275
REMARK  115  A    between atoms: _275  and  _276
REMARK  116  A    between atoms: _279  and  _281
REMARK  117  A    between atoms: _281  and  _282
REMARK  118  A    between atoms: _281  and  _284
REMARK  119  A    between atoms: _284  and  _285
REMARK  120  A    between atoms: _291  and  _293
REMARK  121  A    between atoms: _293  and  _294
REMARK  122  A    between atoms: _293  and  _296
REMARK  123  A    between atoms: _296  and  _297
REMARK  124  A    between atoms: _300  and  _302
REMARK  125  A    between atoms: _302  and  _303
REMARK  126  A    between atoms: _302  and  _305
REMARK  127  A    between atoms: _305  and  _306
REMARK  128  A    between atoms: _309  and  _311
REMARK  129  A    between atoms: _311  and  _312
REMARK  130  A    between atoms: _311  and  _314
REMARK  131  A    between atoms: _314  and  _315
REMARK  132  A    between atoms: _318  and  _320
REMARK  133  A    between atoms: _320  and  _321
REMARK  134  A    between atoms: _320  and  _323
REMARK  135  A    between atoms: _326  and  _328
REMARK  136  A    between atoms: _328  and  _329
REMARK  137  A    between atoms: _328  and  _331
REMARK  138  A    between atoms: _331  and  _332
REMARK  139  A    between atoms: _337  and  _338
REMARK  140  A    between atoms: _340  and  _342
REMARK  141  A    between atoms: _342  and  _343
REMARK  142  A    between atoms: _345  and  _347
REMARK  143  A    between atoms: _347  and  _348
REMARK  144  A    between atoms: _347  and  _350
REMARK  145  A    between atoms: _353  and  _355
REMARK  146  A    between atoms: _355  and  _356
REMARK  147  A    between atoms: _359  and  _361
REMARK  148  A    between atoms: _361  and  _362
REMARK  149  A    between atoms: _361  and  _364
REMARK  150  A    between atoms: _364  and  _365
REMARK  151  A    between atoms: _368  and  _370
REMARK  152  A    between atoms: _370  and  _371
REMARK  153  A    between atoms: _370  and  _373
REMARK  154  A    between atoms: _376  and  _378
REMARK  155  A    between atoms: _378  and  _379
REMARK  156  A    between atoms: _381  and  _383
REMARK  157  A    between atoms: _383  and  _384
REMARK  158  A    between atoms: _383  and  _386
REMARK  159  A    between atoms: _389  and  _391
REMARK  160  A    between atoms: _391  and  _392
REMARK  161  A    between atoms: _391  and  _394
REMARK  162  A    between atoms: _394  and  _395
REMARK  163  A    between atoms: _398  and  _400
REMARK  164  A    between atoms: _400  and  _401
REMARK  165  A    between atoms: _400  and  _403
REMARK  166  A    between atoms: _403  and  _404
REMARK  167  A    between atoms: _407  and  _409
REMARK  168  A    between atoms: _409  and  _410
REMARK  169  A    between atoms: _409  and  _412
REMARK  170  A    between atoms: _412  and  _413
REMARK  171  A    between atoms: _416  and  _418
REMARK  172  A    between atoms: _418  and  _419
REMARK  173  A    between atoms: _418  and  _421
REMARK  174  A    between atoms: _421  and  _422
REMARK  175  A    between atoms: _424  and  _426
REMARK  176  A    between atoms: _426  and  _427
REMARK  177  A    between atoms: _426  and  _429
REMARK  178  A    between atoms: _429  and  _430
REMARK  179  A    between atoms: _433  and  _435
REMARK  180  A    between atoms: _435  and  _436
REMARK  181  A    between atoms: _435  and  _438
REMARK  182  A    between atoms: _438  and  _439
REMARK  183  A    between atoms: _439  and  _440
REMARK  184  A    between atoms: _445  and  _447
REMARK  185  A    between atoms: _447  and  _448
REMARK  186  A    between atoms: _447  and  _450
REMARK  187  A    between atoms: _450  and  _451
REMARK  188  A    between atoms: _454  and  _456
REMARK  189  A    between atoms: _456  and  _457
REMARK  190  A    between atoms: _456  and  _459
REMARK  191  A    between atoms: _459  and  _460
REMARK  192  A    between atoms: _465  and  _467
REMARK  193  A    between atoms: _467  and  _468
REMARK  194  A    between atoms: _467  and  _470
REMARK  195  A    between atoms: _470  and  _471
REMARK  196  A    between atoms: _474  and  _476
REMARK  197  A    between atoms: _476  and  _477
REMARK  198  A    between atoms: _476  and  _479
REMARK  199  A    between atoms: _479  and  _480
REMARK  200  A    between atoms: _480  and  _481
REMARK  201  A    between atoms: _481  and  _482
REMARK  202  A    between atoms: _491  and  _493
REMARK  203  A    between atoms: _493  and  _494
REMARK  204  A    between atoms: _493  and  _496
REMARK  205  A    between atoms: _496  and  _497
REMARK  206  A    between atoms: _500  and  _502
REMARK  207  A    between atoms: _502  and  _503
REMARK  208  A    between atoms: _502  and  _505
REMARK  209  A    between atoms: _505  and  _506
REMARK  210  A    between atoms: _506  and  _507
REMARK  211  A    between atoms: _510  and  _512
REMARK  212  A    between atoms: _512  and  _513
REMARK  213  A    between atoms: _512  and  _515
REMARK  214  A    between atoms: _515  and  _516
REMARK  215  A    between atoms: _522  and  _524
REMARK  216  A    between atoms: _524  and  _525
REMARK  217  A    between atoms: _524  and  _527
REMARK  218  A    between atoms: _527  and  _528
REMARK  219  A    between atoms: _531  and  _533
REMARK  220  A    between atoms: _533  and  _534
REMARK  221  A    between atoms: _533  and  _536
REMARK  222  A    between atoms: _536  and  _537
REMARK  223  A    between atoms: _540  and  _542
REMARK  224  A    between atoms: _542  and  _543
REMARK  225  A    between atoms: _542  and  _545
REMARK  226  A    between atoms: _545  and  _546
REMARK  227  A    between atoms: _546  and  _547
REMARK  228  A    between atoms: _550  and  _552
REMARK  229  A    between atoms: _552  and  _553
REMARK  230  A    between atoms: _552  and  _555
REMARK  231  A    between atoms: _555  and  _556
REMARK  232  A    between atoms: _559  and  _561
REMARK  233  A    between atoms: _561  and  _562
REMARK  234  A    between atoms: _565  and  _567
REMARK  235  A    between atoms: _567  and  _568
REMARK  236  A    between atoms: _571  and  _573
REMARK  237  A    between atoms: _573  and  _574
REMARK  238  A    between atoms: _573  and  _576
REMARK  239  A    between atoms: _576  and  _577
REMARK  240  A    between atoms: _577  and  _578
REMARK  241  A    between atoms: _578  and  _579
REMARK  242  A    between atoms: _588  and  _590
REMARK  243  A    between atoms: _590  and  _591
REMARK  244  A    between atoms: _590  and  _593
REMARK  245  A    between atoms: _593  and  _594
REMARK  246  A    between atoms: _597  and  _599
REMARK  247  A    between atoms: _599  and  _600
REMARK  248  A    between atoms: _603  and  _605
REMARK  249  A    between atoms: _605  and  _606
REMARK  250  A    between atoms: _605  and  _608
REMARK  251  A    between atoms: _608  and  _609
REMARK  252  A    between atoms: _612  and  _614
REMARK  253  A    between atoms: _614  and  _615
REMARK  254  A    between atoms: _614  and  _617
REMARK  255  A    between atoms: _617  and  _618
REMARK  256  A    between atoms: _618  and  _619
REMARK  257  A    between atoms: _622  and  _624
REMARK  258  A    between atoms: _624  and  _625
REMARK  259  A    between atoms: _624  and  _627
REMARK  260  A    between atoms: _627  and  _628
REMARK  261  A    between atoms: _631  and  _633
REMARK  262  A    between atoms: _633  and  _634
REMARK  263  A    between atoms: _633  and  _636
REMARK  264  A    between atoms: _636  and  _637
REMARK  265  A    between atoms: _640  and  _642
REMARK  266  A    between atoms: _642  and  _643
REMARK  267  A    between atoms: _642  and  _645
REMARK  268  A    between atoms: _645  and  _646
REMARK  269  A    between atoms: _646  and  _647
REMARK  270  A    between atoms: _647  and  _648
REMARK  271  A    between atoms: _657  and  _659
REMARK  272  A    between atoms: _659  and  _660
REMARK  273  A    between atoms: _659  and  _662
REMARK  274  A    between atoms: _665  and  _667
REMARK  275  A    between atoms: _667  and  _668
REMARK  276  A    between atoms: _667  and  _670
REMARK  277  A    between atoms: _670  and  _671
REMARK  278  A    between atoms: _677  and  _679
REMARK  279  A    between atoms: _679  and  _680
REMARK  280  A    between atoms: _679  and  _682
REMARK  281  A    between atoms: _685  and  _687
REMARK  282  A    between atoms: _687  and  _688
REMARK  283  A    between atoms: _687  and  _690
REMARK  284  A    between atoms: _690  and  _691
REMARK  285  A    between atoms: _691  and  _692
REMARK  286  A    between atoms: _692  and  _693
REMARK  287  A    between atoms: _693  and  _694
REMARK                            x       y       z     vdW  Elec       q    Type
REMARK                         _______ _______ _______ _____ _____    ______ ____
ROOT
ATOM      1  CA  VAL A   8      33.791 -12.290  13.593  0.00  0.00    +0.149 C 
ENDROOT
BRANCH   1   2
ATOM      2  C   VAL A   8      33.369 -11.653  12.251  0.00  0.00    +0.241 C 
ATOM      3  O   VAL A   8      34.046 -10.771  11.726  0.00  0.00    -0.273 OA
ATOM      4  N   CYS A   9      32.261 -12.114  11.672  0.00  0.00    -0.296 N 
ATOM      5  H   CYS A   9      31.726 -12.886  12.119  0.00  0.00    +0.150 HD
BRANCH   4   6
ATOM      6  CA  CYS A   9      31.792 -11.537  10.407  0.00  0.00    +0.160 C 
BRANCH   6   7
ATOM      7  C   CYS A   9      31.387 -10.067  10.516  0.00  0.00    +0.242 C 
ATOM      8  N   ARG A  10      30.806  -9.682  11.652  0.00  0.00    -0.297 N 
ATOM      9  H   ARG A  10      30.593 -10.380  12.393  0.00  0.00    +0.150 HD
ATOM     10  O   CYS A   9      31.596  -9.296   9.563  0.00  0.00    -0.273 OA
BRANCH   8  11
ATOM     11  CA  ARG A  10      30.471  -8.275  11.850  0.00  0.00    +0.149 C 
BRANCH  11  12
ATOM     12  C   ARG A  10      31.709  -7.383  11.966  0.00  0.00    +0.241 C 
ATOM     13  N   LYS A  11      32.727  -7.880  12.668  0.00  0.00    -0.297 N 
ATOM     14  H   LYS A  11      32.607  -8.788  13.160  0.00  0.00    +0.150 HD
ATOM     15  O   ARG A  10      31.722  -6.261  11.436  0.00  0.00    -0.273 OA
BRANCH  13  16
ATOM     16  CA  LYS A  11      34.004  -7.183  12.764  0.00  0.00    +0.149 C 
BRANCH  16  17
ATOM     17  C   LYS A  11      34.646  -7.019  11.390  0.00  0.00    +0.241 C 
ATOM     18  O   LYS A  11      35.193  -5.961  11.088  0.00  0.00    -0.273 OA
ATOM     19  N   ILE A  12      34.574  -8.065  10.570  0.00  0.00    -0.297 N 
ATOM     20  H   ILE A  12      34.179  -8.960  10.923  0.00  0.00    +0.150 HD
BRANCH  19  21
ATOM     21  CA  ILE A  12      35.038  -7.987   9.181  0.00  0.00    +0.149 C 
BRANCH  21  22
ATOM     22  C   ILE A  12      34.298  -6.899   8.386  0.00  0.00    +0.241 C 
ATOM     23  N   ASP A  13      32.969  -6.915   8.464  0.00  0.00    -0.297 N 
ATOM     24  H   ASP A  13      32.506  -7.637   9.052  0.00  0.00    +0.150 HD
ATOM     25  O   ILE A  12      34.917  -6.074   7.713  0.00  0.00    -0.273 OA
BRANCH  23  26
ATOM     26  CA  ASP A  13      32.143  -5.947   7.747  0.00  0.00    +0.160 C 
BRANCH  26  27
ATOM     27  C   ASP A  13      32.395  -4.524   8.254  0.00  0.00    +0.241 C 
ATOM     28  N   ASP A  14      32.483  -4.358   9.575  0.00  0.00    -0.298 N 
ATOM     29  H   ASP A  14      32.331  -5.187  10.184  0.00  0.00    +0.150 HD
ATOM     30  O   ASP A  13      32.569  -3.618   7.446  0.00  0.00    -0.273 OA
BRANCH  28  31
ATOM     31  CA  ASP A  14      32.782  -3.072  10.220  0.00  0.00    +0.148 C 
BRANCH  31  32
ATOM     32  C   ASP A  14      34.126  -2.474   9.844  0.00  0.00    +0.227 C 
ATOM     33  O   ASP A  14      34.228  -1.264   9.626  0.00  0.00    -0.286 OA
ENDBRANCH  31  32
BRANCH  31  34
ATOM     34  CB  ASP A  14      32.811  -3.201  11.747  0.00  0.00    +0.142 C 
BRANCH  34  35
ATOM     35  CG  ASP A  14      31.434  -3.257  12.376  0.00  0.00    +0.367 C 
ATOM     36  OD2 ASP A  14      31.387  -3.364  13.622  0.00  0.00    -0.246 OA
ATOM     37  OD1 ASP A  14      30.416  -3.213  11.654  0.00  0.00    -0.246 OA
ENDBRANCH  34  35
ENDBRANCH  31  34
ENDBRANCH  28  31
ENDBRANCH  26  27
BRANCH  26  38
ATOM     38  CB  ASP A  13      30.661  -6.331   7.823  0.00  0.00    +0.143 C 
BRANCH  38  39
ATOM     39  CG  ASP A  13      29.802  -5.572   6.823  0.00  0.00    +0.367 C 
ATOM     40  OD2 ASP A  13      28.945  -4.789   7.267  0.00  0.00    -0.246 OA
ATOM     41  OD1 ASP A  13      29.960  -5.767   5.600  0.00  0.00    -0.246 OA
ENDBRANCH  38  39
ENDBRANCH  26  38
ENDBRANCH  23  26
ENDBRANCH  21  22
BRANCH  21  42
ATOM     42  CB  ILE A  12      34.914  -9.359   8.473  0.00  0.00    +0.027 C 
ATOM     43  CG2 ILE A  12      34.959  -9.210   6.950  0.00  0.00    +0.002 C 
BRANCH  42  44
ATOM     44  CG1 ILE A  12      36.021 -10.303   8.958  0.00  0.00    +0.002 C 
ATOM     45  CD1 ILE A  12      35.718 -11.793   8.717  0.00  0.00    +0.000 C 
ENDBRANCH  42  44
ENDBRANCH  21  42
ENDBRANCH  19  21
ENDBRANCH  16  17
BRANCH  16  46
ATOM     46  CB  LYS A  11      34.955  -7.885  13.739  0.00  0.00    +0.029 C 
BRANCH  46  47
ATOM     47  CG  LYS A  11      34.545  -7.758  15.206  0.00  0.00    +0.000 C 
BRANCH  47  48
ATOM     48  CD  LYS A  11      34.706  -6.350  15.778  0.00  0.00    -0.024 C 
BRANCH  48  49
ATOM     49  CE  LYS A  11      33.898  -6.187  17.060  0.00  0.00    -0.086 C 
BRANCH  49  50
ATOM     50  NZ  LYS A  11      33.955  -4.797  17.612  0.00  0.00    +0.380 N 
ATOM     51  HZ1 LYS A  11      33.388  -4.747  18.482  0.00  0.00    -0.089 HD
ATOM     52  HZ2 LYS A  11      34.942  -4.550  17.826  0.00  0.00    -0.089 HD
ATOM     53  HZ3 LYS A  11      33.574  -4.131  16.910  0.00  0.00    -0.089 HD
ENDBRANCH  49  50
ENDBRANCH  48  49
ENDBRANCH  47  48
ENDBRANCH  46  47
ENDBRANCH  16  46
ENDBRANCH  13  16
ENDBRANCH  11  12
BRANCH  11  54
ATOM     54  CB  ARG A  10      29.555  -8.025  13.046  0.00  0.00    +0.033 C 
BRANCH  54  55
ATOM     55  CG  ARG A  10      29.272  -6.526  13.110  0.00  0.00    +0.045 C 
BRANCH  55  56
ATOM     56  CD  ARG A  10      27.985  -6.107  13.774  0.00  0.00    +0.174 C 
BRANCH  56  57
ATOM     57  NE  ARG A  10      26.785  -6.367  12.989  0.00  0.00    -0.265 N 
ATOM     58  HE  ARG A  10      26.604  -7.349  12.700  0.00  0.00    +0.259 HD
ATOM     59  CZ  ARG A  10      25.903  -5.445  12.614  0.00  0.00    +0.342 C 
ATOM     60  NH2 ARG A  10      26.075  -4.159  12.899  0.00  0.00    -0.292 N 
ATOM     61 HH21 ARG A  10      26.916  -3.852  13.428  0.00  0.00    +0.255 HD
ATOM     62 HH22 ARG A  10      25.369  -3.460  12.593  0.00  0.00    +0.255 HD
ATOM     63  NH1 ARG A  10      24.822  -5.823  11.960  0.00  0.00    -0.292 N 
ATOM     64 HH11 ARG A  10      24.670  -6.829  11.745  0.00  0.00    +0.255 HD
ATOM     65 HH12 ARG A  10      24.122  -5.115  11.659  0.00  0.00    +0.255 HD
ENDBRANCH  56  57
ENDBRANCH  55  56
ENDBRANCH  54  55
ENDBRANCH  11  54
ENDBRANCH   8  11
ENDBRANCH   6   7
BRANCH   6  66
ATOM     66  CB  CYS A   9      30.630 -12.331   9.810  0.00  0.00    +0.098 C 
ATOM     67  SG  CYS A   9      31.098 -14.013   9.400  0.00  0.00    -0.080 S 
ENDBRANCH   6  66
ENDBRANCH   4   6
ENDBRANCH   1   2
BRANCH   1  70
ATOM     68  C   ALA A   7      32.052 -11.272  14.982  0.00  0.00    +0.241 C 
ATOM     69  O   ALA A   7      32.398 -10.132  14.651  0.00  0.00    -0.273 OA
ATOM     70  N   VAL A   8      32.693 -12.363  14.565  0.00  0.00    -0.297 N 
ATOM     71  H   VAL A   8      32.408 -13.291  14.938  0.00  0.00    +0.150 HD
BRANCH  68  72
ATOM     72  CA  ALA A   7      30.849 -11.448  15.917  0.00  0.00    +0.149 C 
ATOM     73  CB  ALA A   7      31.289 -11.722  17.381  0.00  0.00    +0.031 C 
BRANCH  72  75
ATOM     74  C   TYR A   6      29.337 -12.376  14.267  0.00  0.00    +0.241 C 
ATOM     75  N   ALA A   7      29.933 -12.475  15.452  0.00  0.00    -0.297 N 
ATOM     76  H   ALA A   7      29.740 -13.300  16.055  0.00  0.00    +0.150 HD
ATOM     77  O   TYR A   6      29.488 -11.413  13.521  0.00  0.00    -0.273 OA
BRANCH  74  78
ATOM     78  CA  TYR A   6      28.428 -13.526  13.853  0.00  0.00    +0.153 C 
BRANCH  78  80
ATOM     79  C   ILE A   5      30.207 -15.160  13.494  0.00  0.00    +0.241 C 
ATOM     80  N   TYR A   6      29.059 -14.828  14.084  0.00  0.00    -0.297 N 
ATOM     81  H   TYR A   6      28.601 -15.509  14.723  0.00  0.00    +0.150 HD
ATOM     82  O   ILE A   5      30.791 -14.440  12.678  0.00  0.00    -0.273 OA
BRANCH  79  83
ATOM     83  CA  ILE A   5      30.802 -16.515  13.867  0.00  0.00    +0.149 C 
BRANCH  83  86
ATOM     84  C   ALA A   4      31.486 -15.977  16.110  0.00  0.00    +0.241 C 
ATOM     85  O   ALA A   4      32.209 -15.082  15.672  0.00  0.00    -0.273 OA
ATOM     86  N   ILE A   5      30.757 -16.741  15.307  0.00  0.00    -0.297 N 
ATOM     87  H   ILE A   5      30.158 -17.495  15.701  0.00  0.00    +0.150 HD
BRANCH  84  88
ATOM     88  CA  ALA A   4      31.357 -16.221  17.622  0.00  0.00    +0.149 C 
ATOM     89  CB  ALA A   4      32.182 -17.427  18.051  0.00  0.00    +0.031 C 
BRANCH  88  91
ATOM     90  C   TRP A   3      29.045 -15.457  17.871  0.00  0.00    +0.241 C 
ATOM     91  N   ALA A   4      29.958 -16.423  17.978  0.00  0.00    -0.297 N 
ATOM     92  H   ALA A   4      29.661 -17.356  18.329  0.00  0.00    +0.150 HD
ATOM     93  O   TRP A   3      29.309 -14.302  17.513  0.00  0.00    -0.273 OA
BRANCH  90  94
ATOM     94  CA  TRP A   3      27.621 -15.839  18.295  0.00  0.00    +0.153 C 
BRANCH  94  96
ATOM     95  C   VAL A   2      27.192 -17.373  16.454  0.00  0.00    +0.241 C 
ATOM     96  N   TRP A   3      27.198 -17.145  17.771  0.00  0.00    -0.297 N 
ATOM     97  H   TRP A   3      26.902 -17.895  18.428  0.00  0.00    +0.150 HD
ATOM     98  O   VAL A   2      27.486 -16.502  15.629  0.00  0.00    -0.273 OA
BRANCH  95  99
ATOM     99  CA  VAL A   2      26.844 -18.781  15.965  0.00  0.00    +0.148 C 
BRANCH  99 101
ATOM    100  C   ALA A   1      28.759 -19.962  16.983  0.00  0.00    +0.238 C 
ATOM    101  N   VAL A   2      27.439 -19.817  16.825  0.00  0.00    -0.297 N 
ATOM    102  H   VAL A   2      26.804 -20.466  17.333  0.00  0.00    +0.150 HD
ATOM    103  O   ALA A   1      29.604 -19.261  16.422  0.00  0.00    -0.274 OA
BRANCH 100 104
ATOM    104  CA  ALA A   1      29.226 -21.045  17.951  0.00  0.00    +0.145 C 
ATOM    105  CB  ALA A   1      29.204 -22.424  17.292  0.00  0.00    +0.028 C 
BRANCH 104 106
ATOM    106  N   ALA A   1      28.436 -21.020  19.178  0.00  0.00    -0.238 NA
ATOM    107  H   ALA A   1      27.890 -21.864  19.446  0.00  0.00    +0.142 HD
ENDBRANCH 104 106
ENDBRANCH 100 104
ENDBRANCH  99 101
BRANCH  99 108
ATOM    108  CB  VAL A   2      25.300 -18.961  15.802  0.00  0.00    +0.027 C 
ATOM    109  CG2 VAL A   2      24.991 -20.262  15.094  0.00  0.00    +0.002 C 
ATOM    110  CG1 VAL A   2      24.665 -17.815  15.003  0.00  0.00    +0.002 C 
ENDBRANCH  99 108
ENDBRANCH  95  99
ENDBRANCH  94  96
BRANCH  94 111
ATOM    111  CB  TRP A   3      27.603 -15.770  19.828  0.00  0.00    +0.057 C 
BRANCH 111 112
ATOM    112  CG  TRP A   3      26.292 -16.014  20.484  0.00  0.00    -0.002 A 
ATOM    113  CD2 TRP A   3      26.085 -16.421  21.840  0.00  0.00    +0.013 A 
ATOM    114  CE3 TRP A   3      26.940 -16.707  22.910  0.00  0.00    +0.001 A 
ATOM    115  CZ3 TRP A   3      26.385 -17.080  24.136  0.00  0.00    +0.000 A 
ATOM    116  CH2 TRP A   3      24.987 -17.177  24.298  0.00  0.00    +0.001 A 
ATOM    117  CZ2 TRP A   3      24.127 -16.899  23.261  0.00  0.00    +0.017 A 
ATOM    118  CE2 TRP A   3      24.692 -16.520  22.034  0.00  0.00    +0.056 A 
ATOM    119  NE1 TRP A   3      24.093 -16.183  20.849  0.00  0.00    -0.352 N 
ATOM    120  HE1 TRP A   3      23.068 -16.166  20.675  0.00  0.00    +0.166 HD
ATOM    121  CD1 TRP A   3      25.058 -15.872  19.930  0.00  0.00    +0.068 A 
ENDBRANCH 111 112
ENDBRANCH  94 111
ENDBRANCH  90  94
ENDBRANCH  88  91
ENDBRANCH  84  88
ENDBRANCH  83  86
BRANCH  83 122
ATOM    122  CB  ILE A   5      30.186 -17.692  13.078  0.00  0.00    +0.027 C 
ATOM    123  CG2 ILE A   5      30.074 -17.331  11.560  0.00  0.00    +0.002 C 
BRANCH 122 124
ATOM    124  CG1 ILE A   5      31.069 -18.920  13.349  0.00  0.00    +0.002 C 
ATOM    125  CD1 ILE A   5      30.499 -20.194  12.885  0.00  0.00    +0.000 C 
ENDBRANCH 122 124
ENDBRANCH  83 122
ENDBRANCH  79  83
ENDBRANCH  78  80
BRANCH  78 126
ATOM    126  CB  TYR A   6      27.108 -13.405  14.623  0.00  0.00    +0.055 C 
BRANCH 126 127
ATOM    127  CG  TYR A   6      26.335 -12.153  14.254  0.00  0.00    -0.020 A 
ATOM    128  CD2 TYR A   6      26.604 -10.930  14.871  0.00  0.00    -0.001 A 
ATOM    129  CE2 TYR A   6      25.890  -9.778  14.534  0.00  0.00    +0.036 A 
ATOM    130  CZ  TYR A   6      24.903  -9.846  13.555  0.00  0.00    +0.134 A 
ATOM    131  CE1 TYR A   6      24.623 -11.051  12.929  0.00  0.00    +0.036 A 
ATOM    132  CD1 TYR A   6      25.334 -12.197  13.289  0.00  0.00    -0.001 A 
BRANCH 130 133
ATOM    133  OH  TYR A   6      24.189  -8.718  13.204  0.00  0.00    -0.506 OA
ATOM    134  HH  TYR A   6      23.534  -8.949  12.498  0.00  0.00    +0.292 HD
ENDBRANCH 130 133
ENDBRANCH 126 127
ENDBRANCH  78 126
ENDBRANCH  74  78
ENDBRANCH  72  75
ENDBRANCH  68  72
ENDBRANCH   1  70
BRANCH   1 135
ATOM    135  CB  VAL A   8      34.400 -13.691  13.280  0.00  0.00    +0.027 C 
ATOM    136  CG2 VAL A   8      35.042 -14.305  14.500  0.00  0.00    +0.002 C 
ATOM    137  CG1 VAL A   8      35.480 -13.570  12.238  0.00  0.00    +0.002 C 
ENDBRANCH   1 135
TORSDOF 53
REMARK  Name = ../refined-set-2016/3vje/3vje_pocket.pdb
REMARK  287 active torsions:
REMARK  status: ('A' for Active; 'I' for Inactive)
REMARK    1  A    between atoms: _1  and  _3
REMARK    2  A    between atoms: _3  and  _4
REMARK    3  A    between atoms: _3  and  _6
REMARK    4  A    between atoms: _6  and  _7
REMARK    5  A    between atoms: _10  and  _12
REMARK    6  A    between atoms: _12  and  _13
REMARK    7  A    between atoms: _12  and  _15
REMARK    8  A    between atoms: _15  and  _16
REMARK    9  A    between atoms: _16  and  _17
REMARK   10  A    between atoms: _19  and  _21
REMARK   11  A    between atoms: _21  and  _22
REMARK   12  A    between atoms: _21  and  _24
REMARK   13  A    between atoms: _24  and  _25
REMARK   14  A    between atoms: _25  and  _26
REMARK   15  A    between atoms: _26  and  _27
REMARK   16  A    between atoms: _27  and  _28
REMARK   17  A    between atoms: _32  and  _34
REMARK   18  A    between atoms: _34  and  _35
REMARK   19  A    between atoms: _34  and  _37
REMARK   20  A    between atoms: _37  and  _38
REMARK   21  A    between atoms: _43  and  _45
REMARK   22  A    between atoms: _45  and  _46
REMARK   23  A    between atoms: _45  and  _48
REMARK   24  A    between atoms: _48  and  _49
REMARK   25  A    between atoms: _51  and  _53
REMARK   26  A    between atoms: _53  and  _54
REMARK   27  A    between atoms: _53  and  _56
REMARK   28  A    between atoms: _56  and  _57
REMARK   29  A    between atoms: _57  and  _58
REMARK   30  A    between atoms: _58  and  _59
REMARK   31  A    between atoms: _59  and  _60
REMARK   32  A    between atoms: _64  and  _66
REMARK   33  A    between atoms: _66  and  _67
REMARK   34  A    between atoms: _66  and  _69
REMARK   35  A    between atoms: _69  and  _70
REMARK   36  A    between atoms: _72  and  _74
REMARK   37  A    between atoms: _74  and  _75
REMARK   38  A    between atoms: _74  and  _77
REMARK   39  A    between atoms: _77  and  _78
REMARK   40  A    between atoms: _84  and  _86
REMARK   41  A    between atoms: _86  and  _87
REMARK   42  A    between atoms: _86  and  _89
REMARK   43  A    between atoms: _89  and  _90
REMARK   44  A    between atoms: _92  and  _94
REMARK   45  A    between atoms: _94  and  _95
REMARK   46  A    between atoms: _94  and  _97
REMARK   47  A    between atoms: _97  and  _98
REMARK   48  A    between atoms: _103  and  _104
REMARK   49  A    between atoms: _106  and  _108
REMARK   50  A    between atoms: _108  and  _109
REMARK   51  A    between atoms: _112  and  _114
REMARK   52  A    between atoms: _114  and  _115
REMARK   53  A    between atoms: _114  and  _117
REMARK   54  A    between atoms: _117  and  _118
REMARK   55  A    between atoms: _124  and  _126
REMARK   56  A    between atoms: _126  and  _127
REMARK   57  A    between atoms: _126  and  _129
REMARK   58  A    between atoms: _129  and  _130
REMARK   59  A    between atoms: _133  and  _135
REMARK   60  A    between atoms: _135  and  _136
REMARK   61  A    between atoms: _135  and  _138
REMARK   62  A    between atoms: _138  and  _139
REMARK   63  A    between atoms: _142  and  _144
REMARK   64  A    between atoms: _144  and  _145
REMARK   65  A    between atoms: _148  and  _150
REMARK   66  A    between atoms: _150  and  _151
REMARK   67  A    between atoms: _150  and  _153
REMARK   68  A    between atoms: _156  and  _158
REMARK   69  A    between atoms: _158  and  _159
REMARK   70  A    between atoms: _158  and  _161
REMARK   71  A    between atoms: _161  and  _162
REMARK   72  A    between atoms: _172  and  _174
REMARK   73  A    between atoms: _174  and  _175
REMARK   74  A    between atoms: _178  and  _180
REMARK   75  A    between atoms: _180  and  _181
REMARK   76  A    between atoms: _180  and  _183
REMARK   77  A    between atoms: _183  and  _184
REMARK   78  A    between atoms: _187  and  _189
REMARK   79  A    between atoms: _189  and  _190
REMARK   80  A    between atoms: _189  and  _192
REMARK   81  A    between atoms: _192  and  _193
REMARK   82  A    between atoms: _198  and  _199
REMARK   83  A    between atoms: _201  and  _203
REMARK   84  A    between atoms: _203  and  _204
REMARK   85  A    between atoms: _207  and  _209
REMARK   86  A    between atoms: _209  and  _210
REMARK   87  A    between atoms: _209  and  _212
REMARK   88  A    between atoms: _215  and  _217
REMARK   89  A    between atoms: _217  and  _218
REMARK   90  A    between atoms: _217  and  _220
REMARK   91  A    between atoms: _222  and  _224
REMARK   92  A    between atoms: _224  and  _225
REMARK   93  A    between atoms: _224  and  _227
REMARK   94  A    between atoms: _227  and  _228
REMARK   95  A    between atoms: _228  and  _229
REMARK   96  A    between atoms: _229  and  _230
REMARK   97  A    between atoms: _239  and  _241
REMARK   98  A    between atoms: _241  and  _242
REMARK   99  A    between atoms: _241  and  _244
REMARK  100  A    between atoms: _244  and  _245
REMARK  101  A    between atoms: _245  and  _246
REMARK  102  A    between atoms: _246  and  _247
REMARK  103  A    between atoms: _247  and  _248
REMARK  104  A    between atoms: _252  and  _254
REMARK  105  A    between atoms: _254  and  _255
REMARK  106  A    between atoms: _254  and  _257
REMARK  107  A    between atoms: _257  and  _258
REMARK  108  A    between atoms: _261  and  _263
REMARK  109  A    between atoms: _263  and  _264
REMARK  110  A    between atoms: _263  and  _266
REMARK  111  A    between atoms: _266  and  _267
REMARK  112  A    between atoms: _270  and  _272
REMARK  113  A    between atoms: _272  and  _273
REMARK  114  A    between atoms: _272  and  _275
REMARK  115  A    between atoms: _275  and  _276
REMARK  116  A    between atoms: _279  and  _281
REMARK  117  A    between atoms: _281  and  _282
REMARK  118  A    between atoms: _281  and  _284
REMARK  119  A    between atoms: _284  and  _285
REMARK  120  A    between atoms: _291  and  _293
REMARK  121  A    between atoms: _293  and  _294
REMARK  122  A    between atoms: _293  and  _296
REMARK  123  A    between atoms: _296  and  _297
REMARK  124  A    between atoms: _300  and  _302
REMARK  125  A    between atoms: _302  and  _303
REMARK  126  A    between atoms: _302  and  _305
REMARK  127  A    between atoms: _305  and  _306
REMARK  128  A    between atoms: _309  and  _311
REMARK  129  A    between atoms: _311  and  _312
REMARK  130  A    between atoms: _311  and  _314
REMARK  131  A    between atoms: _314  and  _315
REMARK  132  A    between atoms: _318  and  _320
REMARK  133  A    between atoms: _320  and  _321
REMARK  134  A    between atoms: _320  and  _323
REMARK  135  A    between atoms: _326  and  _328
REMARK  136  A    between atoms: _328  and  _329
REMARK  137  A    between atoms: _328  and  _331
REMARK  138  A    between atoms: _331  and  _332
REMARK  139  A    between atoms: _337  and  _338
REMARK  140  A    between atoms: _340  and  _342
REMARK  141  A    between atoms: _342  and  _343
REMARK  142  A    between atoms: _345  and  _347
REMARK  143  A    between atoms: _347  and  _348
REMARK  144  A    between atoms: _347  and  _350
REMARK  145  A    between atoms: _353  and  _355
REMARK  146  A    between atoms: _355  and  _356
REMARK  147  A    between atoms: _359  and  _361
REMARK  148  A    between atoms: _361  and  _362
REMARK  149  A    between atoms: _361  and  _364
REMARK  150  A    between atoms: _364  and  _365
REMARK  151  A    between atoms: _368  and  _370
REMARK  152  A    between atoms: _370  and  _371
REMARK  153  A    between atoms: _370  and  _373
REMARK  154  A    between atoms: _376  and  _378
REMARK  155  A    between atoms: _378  and  _379
REMARK  156  A    between atoms: _381  and  _383
REMARK  157  A    between atoms: _383  and  _384
REMARK  158  A    between atoms: _383  and  _386
REMARK  159  A    between atoms: _389  and  _391
REMARK  160  A    between atoms: _391  and  _392
REMARK  161  A    between atoms: _391  and  _394
REMARK  162  A    between atoms: _394  and  _395
REMARK  163  A    between atoms: _398  and  _400
REMARK  164  A    between atoms: _400  and  _401
REMARK  165  A    between atoms: _400  and  _403
REMARK  166  A    between atoms: _403  and  _404
REMARK  167  A    between atoms: _407  and  _409
REMARK  168  A    between atoms: _409  and  _410
REMARK  169  A    between atoms: _409  and  _412
REMARK  170  A    between atoms: _412  and  _413
REMARK  171  A    between atoms: _416  and  _418
REMARK  172  A    between atoms: _418  and  _419
REMARK  173  A    between atoms: _418  and  _421
REMARK  174  A    between atoms: _421  and  _422
REMARK  175  A    between atoms: _424  and  _426
REMARK  176  A    between atoms: _426  and  _427
REMARK  177  A    between atoms: _426  and  _429
REMARK  178  A    between atoms: _429  and  _430
REMARK  179  A    between atoms: _433  and  _435
REMARK  180  A    between atoms: _435  and  _436
REMARK  181  A    between atoms: _435  and  _438
REMARK  182  A    between atoms: _438  and  _439
REMARK  183  A    between atoms: _439  and  _440
REMARK  184  A    between atoms: _445  and  _447
REMARK  185  A    between atoms: _447  and  _448
REMARK  186  A    between atoms: _447  and  _450
REMARK  187  A    between atoms: _450  and  _451
REMARK  188  A    between atoms: _454  and  _456
REMARK  189  A    between atoms: _456  and  _457
REMARK  190  A    between atoms: _456  and  _459
REMARK  191  A    between atoms: _459  and  _460
REMARK  192  A    between atoms: _465  and  _467
REMARK  193  A    between atoms: _467  and  _468
REMARK  194  A    between atoms: _467  and  _470
REMARK  195  A    between atoms: _470  and  _471
REMARK  196  A    between atoms: _474  and  _476
REMARK  197  A    between atoms: _476  and  _477
REMARK  198  A    between atoms: _476  and  _479
REMARK  199  A    between atoms: _479  and  _480
REMARK  200  A    between atoms: _480  and  _481
REMARK  201  A    between atoms: _481  and  _482
REMARK  202  A    between atoms: _491  and  _493
REMARK  203  A    between atoms: _493  and  _494
REMARK  204  A    between atoms: _493  and  _496
REMARK  205  A    between atoms: _496  and  _497
REMARK  206  A    between atoms: _500  and  _502
REMARK  207  A    between atoms: _502  and  _503
REMARK  208  A    between atoms: _502  and  _505
REMARK  209  A    between atoms: _505  and  _506
REMARK  210  A    between atoms: _506  and  _507
REMARK  211  A    between atoms: _510  and  _512
REMARK  212  A    between atoms: _512  and  _513
REMARK  213  A    between atoms: _512  and  _515
REMARK  214  A    between atoms: _515  and  _516
REMARK  215  A    between atoms: _522  and  _524
REMARK  216  A    between atoms: _524  and  _525
REMARK  217  A    between atoms: _524  and  _527
REMARK  218  A    between atoms: _527  and  _528
REMARK  219  A    between atoms: _531  and  _533
REMARK  220  A    between atoms: _533  and  _534
REMARK  221  A    between atoms: _533  and  _536
REMARK  222  A    between atoms: _536  and  _537
REMARK  223  A    between atoms: _540  and  _542
REMARK  224  A    between atoms: _542  and  _543
REMARK  225  A    between atoms: _542  and  _545
REMARK  226  A    between atoms: _545  and  _546
REMARK  227  A    between atoms: _546  and  _547
REMARK  228  A    between atoms: _550  and  _552
REMARK  229  A    between atoms: _552  and  _553
REMARK  230  A    between atoms: _552  and  _555
REMARK  231  A    between atoms: _555  and  _556
REMARK  232  A    between atoms: _559  and  _561
REMARK  233  A    between atoms: _561  and  _562
REMARK  234  A    between atoms: _565  and  _567
REMARK  235  A    between atoms: _567  and  _568
REMARK  236  A    between atoms: _571  and  _573
REMARK  237  A    between atoms: _573  and  _574
REMARK  238  A    between atoms: _573  and  _576
REMARK  239  A    between atoms: _576  and  _577
REMARK  240  A    between atoms: _577  and  _578
REMARK  241  A    between atoms: _578  and  _579
REMARK  242  A    between atoms: _588  and  _590
REMARK  243  A    between atoms: _590  and  _591
REMARK  244  A    between atoms: _590  and  _593
REMARK  245  A    between atoms: _593  and  _594
REMARK  246  A    between atoms: _597  and  _599
REMARK  247  A    between atoms: _599  and  _600
REMARK  248  A    between atoms: _603  and  _605
REMARK  249  A    between atoms: _605  and  _606
REMARK  250  A    between atoms: _605  and  _608
REMARK  251  A    between atoms: _608  and  _609
REMARK  252  A    between atoms: _612  and  _614
REMARK  253  A    between atoms: _614  and  _615
REMARK  254  A    between atoms: _614  and  _617
REMARK  255  A    between atoms: _617  and  _618
REMARK  256  A    between atoms: _618  and  _619
REMARK  257  A    between atoms: _622  and  _624
REMARK  258  A    between atoms: _624  and  _625
REMARK  259  A    between atoms: _624  and  _627
REMARK  260  A    between atoms: _627  and  _628
REMARK  261  A    between atoms: _631  and  _633
REMARK  262  A    between atoms: _633  and  _634
REMARK  263  A    between atoms: _633  and  _636
REMARK  264  A    between atoms: _636  and  _637
REMARK  265  A    between atoms: _640  and  _642
REMARK  266  A    between atoms: _642  and  _643
REMARK  267  A    between atoms: _642  and  _645
REMARK  268  A    between atoms: _645  and  _646
REMARK  269  A    between atoms: _646  and  _647
REMARK  270  A    between atoms: _647  and  _648
REMARK  271  A    between atoms: _657  and  _659
REMARK  272  A    between atoms: _659  and  _660
REMARK  273  A    between atoms: _659  and  _662
REMARK  274  A    between atoms: _665  and  _667
REMARK  275  A    between atoms: _667  and  _668
REMARK  276  A    between atoms: _667  and  _670
REMARK  277  A    between atoms: _670  and  _671
REMARK  278  A    between atoms: _677  and  _679
REMARK  279  A    between atoms: _679  and  _680
REMARK  280  A    between atoms: _679  and  _682
REMARK  281  A    between atoms: _685  and  _687
REMARK  282  A    between atoms: _687  and  _688
REMARK  283  A    between atoms: _687  and  _690
REMARK  284  A    between atoms: _690  and  _691
REMARK  285  A    between atoms: _691  and  _692
REMARK  286  A    between atoms: _692  and  _693
REMARK  287  A    between atoms: _693  and  _694
REMARK                            x       y       z     vdW  Elec       q    Type
REMARK                         _______ _______ _______ _____ _____    ______ ____
ROOT
ATOM      1  CB  PHE A   1      36.987 -16.923   6.936  0.00  0.00    +0.051 C 
ENDROOT
BRANCH   1   2
ATOM      2  CG  PHE A   1      36.045 -17.069   8.121  0.00  0.00    -0.020 A 
ATOM      3  CD2 PHE A   1      36.142 -18.166   8.972  0.00  0.00    -0.004 A 
ATOM      4  CE2 PHE A   1      35.313 -18.280  10.090  0.00  0.00    -0.000 A 
ATOM      5  CZ  PHE A   1      34.384 -17.269  10.382  0.00  0.00    -0.000 A 
ATOM      6  CE1 PHE A   1      34.301 -16.151   9.551  0.00  0.00    -0.000 A 
ATOM      7  CD1 PHE A   1      35.124 -16.065   8.430  0.00  0.00    -0.004 A 
ENDBRANCH   1   2
BRANCH   1   8
ATOM      8  CA  PHE A   1      36.290 -16.673   5.583  0.00  0.00    +0.137 C 
BRANCH   8   9
ATOM      9  N   PHE A   1      35.902 -17.923   4.925  0.00  0.00    -0.239 NA
ATOM     10  H   PHE A   1      36.110 -18.835   5.380  0.00  0.00    +0.142 HD
ENDBRANCH   8   9
BRANCH   8  11
ATOM     11  C   PHE A   1      37.194 -15.822   4.675  0.00  0.00    +0.224 C 
ATOM     12  O   PHE A   1      37.038 -14.592   4.633  0.00  0.00    -0.287 OA
ENDBRANCH   8  11
ENDBRANCH   1   8
TORSDOF 4
REMARK  Name = ../refined-set-2016/3vje/3vje_pocket.pdb
REMARK  287 active torsions:
REMARK  status: ('A' for Active; 'I' for Inactive)
REMARK    1  A    between atoms: _1  and  _3
REMARK    2  A    between atoms: _3  and  _4
REMARK    3  A    between atoms: _3  and  _6
REMARK    4  A    between atoms: _6  and  _7
REMARK    5  A    between atoms: _10  and  _12
REMARK    6  A    between atoms: _12  and  _13
REMARK    7  A    between atoms: _12  and  _15
REMARK    8  A    between atoms: _15  and  _16
REMARK    9  A    between atoms: _16  and  _17
REMARK   10  A    between atoms: _19  and  _21
REMARK   11  A    between atoms: _21  and  _22
REMARK   12  A    between atoms: _21  and  _24
REMARK   13  A    between atoms: _24  and  _25
REMARK   14  A    between atoms: _25  and  _26
REMARK   15  A    between atoms: _26  and  _27
REMARK   16  A    between atoms: _27  and  _28
REMARK   17  A    between atoms: _32  and  _34
REMARK   18  A    between atoms: _34  and  _35
REMARK   19  A    between atoms: _34  and  _37
REMARK   20  A    between atoms: _37  and  _38
REMARK   21  A    between atoms: _43  and  _45
REMARK   22  A    between atoms: _45  and  _46
REMARK   23  A    between atoms: _45  and  _48
REMARK   24  A    between atoms: _48  and  _49
REMARK   25  A    between atoms: _51  and  _53
REMARK   26  A    between atoms: _53  and  _54
REMARK   27  A    between atoms: _53  and  _56
REMARK   28  A    between atoms: _56  and  _57
REMARK   29  A    between atoms: _57  and  _58
REMARK   30  A    between atoms: _58  and  _59
REMARK   31  A    between atoms: _59  and  _60
REMARK   32  A    between atoms: _64  and  _66
REMARK   33  A    between atoms: _66  and  _67
REMARK   34  A    between atoms: _66  and  _69
REMARK   35  A    between atoms: _69  and  _70
REMARK   36  A    between atoms: _72  and  _74
REMARK   37  A    between atoms: _74  and  _75
REMARK   38  A    between atoms: _74  and  _77
REMARK   39  A    between atoms: _77  and  _78
REMARK   40  A    between atoms: _84  and  _86
REMARK   41  A    between atoms: _86  and  _87
REMARK   42  A    between atoms: _86  and  _89
REMARK   43  A    between atoms: _89  and  _90
REMARK   44  A    between atoms: _92  and  _94
REMARK   45  A    between atoms: _94  and  _95
REMARK   46  A    between atoms: _94  and  _97
REMARK   47  A    between atoms: _97  and  _98
REMARK   48  A    between atoms: _103  and  _104
REMARK   49  A    between atoms: _106  and  _108
REMARK   50  A    between atoms: _108  and  _109
REMARK   51  A    between atoms: _112  and  _114
REMARK   52  A    between atoms: _114  and  _115
REMARK   53  A    between atoms: _114  and  _117
REMARK   54  A    between atoms: _117  and  _118
REMARK   55  A    between atoms: _124  and  _126
REMARK   56  A    between atoms: _126  and  _127
REMARK   57  A    between atoms: _126  and  _129
REMARK   58  A    between atoms: _129  and  _130
REMARK   59  A    between atoms: _133  and  _135
REMARK   60  A    between atoms: _135  and  _136
REMARK   61  A    between atoms: _135  and  _138
REMARK   62  A    between atoms: _138  and  _139
REMARK   63  A    between atoms: _142  and  _144
REMARK   64  A    between atoms: _144  and  _145
REMARK   65  A    between atoms: _148  and  _150
REMARK   66  A    between atoms: _150  and  _151
REMARK   67  A    between atoms: _150  and  _153
REMARK   68  A    between atoms: _156  and  _158
REMARK   69  A    between atoms: _158  and  _159
REMARK   70  A    between atoms: _158  and  _161
REMARK   71  A    between atoms: _161  and  _162
REMARK   72  A    between atoms: _172  and  _174
REMARK   73  A    between atoms: _174  and  _175
REMARK   74  A    between atoms: _178  and  _180
REMARK   75  A    between atoms: _180  and  _181
REMARK   76  A    between atoms: _180  and  _183
REMARK   77  A    between atoms: _183  and  _184
REMARK   78  A    between atoms: _187  and  _189
REMARK   79  A    between atoms: _189  and  _190
REMARK   80  A    between atoms: _189  and  _192
REMARK   81  A    between atoms: _192  and  _193
REMARK   82  A    between atoms: _198  and  _199
REMARK   83  A    between atoms: _201  and  _203
REMARK   84  A    between atoms: _203  and  _204
REMARK   85  A    between atoms: _207  and  _209
REMARK   86  A    between atoms: _209  and  _210
REMARK   87  A    between atoms: _209  and  _212
REMARK   88  A    between atoms: _215  and  _217
REMARK   89  A    between atoms: _217  and  _218
REMARK   90  A    between atoms: _217  and  _220
REMARK   91  A    between atoms: _222  and  _224
REMARK   92  A    between atoms: _224  and  _225
REMARK   93  A    between atoms: _224  and  _227
REMARK   94  A    between atoms: _227  and  _228
REMARK   95  A    between atoms: _228  and  _229
REMARK   96  A    between atoms: _229  and  _230
REMARK   97  A    between atoms: _239  and  _241
REMARK   98  A    between atoms: _241  and  _242
REMARK   99  A    between atoms: _241  and  _244
REMARK  100  A    between atoms: _244  and  _245
REMARK  101  A    between atoms: _245  and  _246
REMARK  102  A    between atoms: _246  and  _247
REMARK  103  A    between atoms: _247  and  _248
REMARK  104  A    between atoms: _252  and  _254
REMARK  105  A    between atoms: _254  and  _255
REMARK  106  A    between atoms: _254  and  _257
REMARK  107  A    between atoms: _257  and  _258
REMARK  108  A    between atoms: _261  and  _263
REMARK  109  A    between atoms: _263  and  _264
REMARK  110  A    between atoms: _263  and  _266
REMARK  111  A    between atoms: _266  and  _267
REMARK  112  A    between atoms: _270  and  _272
REMARK  113  A    between atoms: _272  and  _273
REMARK  114  A    between atoms: _272  and  _275
REMARK  115  A    between atoms: _275  and  _276
REMARK  116  A    between atoms: _279  and  _281
REMARK  117  A    between atoms: _281  and  _282
REMARK  118  A    between atoms: _281  and  _284
REMARK  119  A    between atoms: _284  and  _285
REMARK  120  A    between atoms: _291  and  _293
REMARK  121  A    between atoms: _293  and  _294
REMARK  122  A    between atoms: _293  and  _296
REMARK  123  A    between atoms: _296  and  _297
REMARK  124  A    between atoms: _300  and  _302
REMARK  125  A    between atoms: _302  and  _303
REMARK  126  A    between atoms: _302  and  _305
REMARK  127  A    between atoms: _305  and  _306
REMARK  128  A    between atoms: _309  and  _311
REMARK  129  A    between atoms: _311  and  _312
REMARK  130  A    between atoms: _311  and  _314
REMARK  131  A    between atoms: _314  and  _315
REMARK  132  A    between atoms: _318  and  _320
REMARK  133  A    between atoms: _320  and  _321
REMARK  134  A    between atoms: _320  and  _323
REMARK  135  A    between atoms: _326  and  _328
REMARK  136  A    between atoms: _328  and  _329
REMARK  137  A    between atoms: _328  and  _331
REMARK  138  A    between atoms: _331  and  _332
REMARK  139  A    between atoms: _337  and  _338
REMARK  140  A    between atoms: _340  and  _342
REMARK  141  A    between atoms: _342  and  _343
REMARK  142  A    between atoms: _345  and  _347
REMARK  143  A    between atoms: _347  and  _348
REMARK  144  A    between atoms: _347  and  _350
REMARK  145  A    between atoms: _353  and  _355
REMARK  146  A    between atoms: _355  and  _356
REMARK  147  A    between atoms: _359  and  _361
REMARK  148  A    between atoms: _361  and  _362
REMARK  149  A    between atoms: _361  and  _364
REMARK  150  A    between atoms: _364  and  _365
REMARK  151  A    between atoms: _368  and  _370
REMARK  152  A    between atoms: _370  and  _371
REMARK  153  A    between atoms: _370  and  _373
REMARK  154  A    between atoms: _376  and  _378
REMARK  155  A    between atoms: _378  and  _379
REMARK  156  A    between atoms: _381  and  _383
REMARK  157  A    between atoms: _383  and  _384
REMARK  158  A    between atoms: _383  and  _386
REMARK  159  A    between atoms: _389  and  _391
REMARK  160  A    between atoms: _391  and  _392
REMARK  161  A    between atoms: _391  and  _394
REMARK  162  A    between atoms: _394  and  _395
REMARK  163  A    between atoms: _398  and  _400
REMARK  164  A    between atoms: _400  and  _401
REMARK  165  A    between atoms: _400  and  _403
REMARK  166  A    between atoms: _403  and  _404
REMARK  167  A    between atoms: _407  and  _409
REMARK  168  A    between atoms: _409  and  _410
REMARK  169  A    between atoms: _409  and  _412
REMARK  170  A    between atoms: _412  and  _413
REMARK  171  A    between atoms: _416  and  _418
REMARK  172  A    between atoms: _418  and  _419
REMARK  173  A    between atoms: _418  and  _421
REMARK  174  A    between atoms: _421  and  _422
REMARK  175  A    between atoms: _424  and  _426
REMARK  176  A    between atoms: _426  and  _427
REMARK  177  A    between atoms: _426  and  _429
REMARK  178  A    between atoms: _429  and  _430
REMARK  179  A    between atoms: _433  and  _435
REMARK  180  A    between atoms: _435  and  _436
REMARK  181  A    between atoms: _435  and  _438
REMARK  182  A    between atoms: _438  and  _439
REMARK  183  A    between atoms: _439  and  _440
REMARK  184  A    between atoms: _445  and  _447
REMARK  185  A    between atoms: _447  and  _448
REMARK  186  A    between atoms: _447  and  _450
REMARK  187  A    between atoms: _450  and  _451
REMARK  188  A    between atoms: _454  and  _456
REMARK  189  A    between atoms: _456  and  _457
REMARK  190  A    between atoms: _456  and  _459
REMARK  191  A    between atoms: _459  and  _460
REMARK  192  A    between atoms: _465  and  _467
REMARK  193  A    between atoms: _467  and  _468
REMARK  194  A    between atoms: _467  and  _470
REMARK  195  A    between atoms: _470  and  _471
REMARK  196  A    between atoms: _474  and  _476
REMARK  197  A    between atoms: _476  and  _477
REMARK  198  A    between atoms: _476  and  _479
REMARK  199  A    between atoms: _479  and  _480
REMARK  200  A    between atoms: _480  and  _481
REMARK  201  A    between atoms: _481  and  _482
REMARK  202  A    between atoms: _491  and  _493
REMARK  203  A    between atoms: _493  and  _494
REMARK  204  A    between atoms: _493  and  _496
REMARK  205  A    between atoms: _496  and  _497
REMARK  206  A    between atoms: _500  and  _502
REMARK  207  A    between atoms: _502  and  _503
REMARK  208  A    between atoms: _502  and  _505
REMARK  209  A    between atoms: _505  and  _506
REMARK  210  A    between atoms: _506  and  _507
REMARK  211  A    between atoms: _510  and  _512
REMARK  212  A    between atoms: _512  and  _513
REMARK  213  A    between atoms: _512  and  _515
REMARK  214  A    between atoms: _515  and  _516
REMARK  215  A    between atoms: _522  and  _524
REMARK  216  A    between atoms: _524  and  _525
REMARK  217  A    between atoms: _524  and  _527
REMARK  218  A    between atoms: _527  and  _528
REMARK  219  A    between atoms: _531  and  _533
REMARK  220  A    between atoms: _533  and  _534
REMARK  221  A    between atoms: _533  and  _536
REMARK  222  A    between atoms: _536  and  _537
REMARK  223  A    between atoms: _540  and  _542
REMARK  224  A    between atoms: _542  and  _543
REMARK  225  A    between atoms: _542  and  _545
REMARK  226  A    between atoms: _545  and  _546
REMARK  227  A    between atoms: _546  and  _547
REMARK  228  A    between atoms: _550  and  _552
REMARK  229  A    between atoms: _552  and  _553
REMARK  230  A    between atoms: _552  and  _555
REMARK  231  A    between atoms: _555  and  _556
REMARK  232  A    between atoms: _559  and  _561
REMARK  233  A    between atoms: _561  and  _562
REMARK  234  A    between atoms: _565  and  _567
REMARK  235  A    between atoms: _567  and  _568
REMARK  236  A    between atoms: _571  and  _573
REMARK  237  A    between atoms: _573  and  _574
REMARK  238  A    between atoms: _573  and  _576
REMARK  239  A    between atoms: _576  and  _577
REMARK  240  A    between atoms: _577  and  _578
REMARK  241  A    between atoms: _578  and  _579
REMARK  242  A    between atoms: _588  and  _590
REMARK  243  A    between atoms: _590  and  _591
REMARK  244  A    between atoms: _590  and  _593
REMARK  245  A    between atoms: _593  and  _594
REMARK  246  A    between atoms: _597  and  _599
REMARK  247  A    between atoms: _599  and  _600
REMARK  248  A    between atoms: _603  and  _605
REMARK  249  A    between atoms: _605  and  _606
REMARK  250  A    between atoms: _605  and  _608
REMARK  251  A    between atoms: _608  and  _609
REMARK  252  A    between atoms: _612  and  _614
REMARK  253  A    between atoms: _614  and  _615
REMARK  254  A    between atoms: _614  and  _617
REMARK  255  A    between atoms: _617  and  _618
REMARK  256  A    between atoms: _618  and  _619
REMARK  257  A    between atoms: _622  and  _624
REMARK  258  A    between atoms: _624  and  _625
REMARK  259  A    between atoms: _624  and  _627
REMARK  260  A    between atoms: _627  and  _628
REMARK  261  A    between atoms: _631  and  _633
REMARK  262  A    between atoms: _633  and  _634
REMARK  263  A    between atoms: _633  and  _636
REMARK  264  A    between atoms: _636  and  _637
REMARK  265  A    between atoms: _640  and  _642
REMARK  266  A    between atoms: _642  and  _643
REMARK  267  A    between atoms: _642  and  _645
REMARK  268  A    between atoms: _645  and  _646
REMARK  269  A    between atoms: _646  and  _647
REMARK  270  A    between atoms: _647  and  _648
REMARK  271  A    between atoms: _657  and  _659
REMARK  272  A    between atoms: _659  and  _660
REMARK  273  A    between atoms: _659  and  _662
REMARK  274  A    between atoms: _665  and  _667
REMARK  275  A    between atoms: _667  and  _668
REMARK  276  A    between atoms: _667  and  _670
REMARK  277  A    between atoms: _670  and  _671
REMARK  278  A    between atoms: _677  and  _679
REMARK  279  A    between atoms: _679  and  _680
REMARK  280  A    between atoms: _679  and  _682
REMARK  281  A    between atoms: _685  and  _687
REMARK  282  A    between atoms: _687  and  _688
REMARK  283  A    between atoms: _687  and  _690
REMARK  284  A    between atoms: _690  and  _691
REMARK  285  A    between atoms: _691  and  _692
REMARK  286  A    between atoms: _692  and  _693
REMARK  287  A    between atoms: _693  and  _694
REMARK                            x       y       z     vdW  Elec       q    Type
REMARK                         _______ _______ _______ _____ _____    ______ ____
ROOT
ATOM      1  C   LEU A   1      35.315 -11.866   2.736  0.00  0.00    +0.238 C 
ATOM      2  N   ILE A   2      36.499 -12.054   3.306  0.00  0.00    -0.298 N 
ATOM      3  H   ILE A   2      36.780 -13.012   3.598  0.00  0.00    +0.150 HD
ATOM      4  O   LEU A   1      34.934 -10.759   2.340  0.00  0.00    -0.274 OA
ENDROOT
BRANCH   1   5
ATOM      5  CA  LEU A   1      34.427 -13.105   2.585  0.00  0.00    +0.145 C 
BRANCH   5   6
ATOM      6  N   LEU A   1      35.158 -14.211   1.970  0.00  0.00    -0.238 NA
ATOM      7  H   LEU A   1      35.220 -15.123   2.466  0.00  0.00    +0.142 HD
ENDBRANCH   5   6
BRANCH   5   8
ATOM      8  CB  LEU A   1      33.833 -13.485   3.948  0.00  0.00    +0.026 C 
BRANCH   8   9
ATOM      9  CG  LEU A   1      33.217 -12.347   4.794  0.00  0.00    +0.002 C 
ATOM     10  CD2 LEU A   1      32.676 -12.859   6.148  0.00  0.00    +0.000 C 
ATOM     11  CD1 LEU A   1      32.105 -11.596   4.053  0.00  0.00    +0.000 C 
ENDBRANCH   8   9
ENDBRANCH   5   8
ENDBRANCH   1   5
BRANCH   2  12
ATOM     12  CA  ILE A   2      37.417 -10.932   3.530  0.00  0.00    +0.137 C 
BRANCH  12  13
ATOM     13  CB  ILE A   2      38.644 -11.378   4.358  0.00  0.00    +0.026 C 
ATOM     14  CG2 ILE A   2      39.742 -10.291   4.364  0.00  0.00    +0.002 C 
BRANCH  13  15
ATOM     15  CG1 ILE A   2      38.190 -11.743   5.776  0.00  0.00    +0.002 C 
ATOM     16  CD1 ILE A   2      39.247 -12.431   6.645  0.00  0.00    +0.000 C 
ENDBRANCH  13  15
ENDBRANCH  12  13
BRANCH  12  17
ATOM     17  C   ILE A   2      37.805 -10.249   2.208  0.00  0.00    +0.227 C 
ATOM     18  O   ILE A   2      37.765  -9.022   2.106  0.00  0.00    -0.286 OA
ENDBRANCH  12  17
ENDBRANCH   2  12
TORSDOF 8
REMARK  Name = ../refined-set-2016/3vje/3vje_pocket.pdb
REMARK  287 active torsions:
REMARK  status: ('A' for Active; 'I' for Inactive)
REMARK    1  A    between atoms: _1  and  _3
REMARK    2  A    between atoms: _3  and  _4
REMARK    3  A    between atoms: _3  and  _6
REMARK    4  A    between atoms: _6  and  _7
REMARK    5  A    between atoms: _10  and  _12
REMARK    6  A    between atoms: _12  and  _13
REMARK    7  A    between atoms: _12  and  _15
REMARK    8  A    between atoms: _15  and  _16
REMARK    9  A    between atoms: _16  and  _17
REMARK   10  A    between atoms: _19  and  _21
REMARK   11  A    between atoms: _21  and  _22
REMARK   12  A    between atoms: _21  and  _24
REMARK   13  A    between atoms: _24  and  _25
REMARK   14  A    between atoms: _25  and  _26
REMARK   15  A    between atoms: _26  and  _27
REMARK   16  A    between atoms: _27  and  _28
REMARK   17  A    between atoms: _32  and  _34
REMARK   18  A    between atoms: _34  and  _35
REMARK   19  A    between atoms: _34  and  _37
REMARK   20  A    between atoms: _37  and  _38
REMARK   21  A    between atoms: _43  and  _45
REMARK   22  A    between atoms: _45  and  _46
REMARK   23  A    between atoms: _45  and  _48
REMARK   24  A    between atoms: _48  and  _49
REMARK   25  A    between atoms: _51  and  _53
REMARK   26  A    between atoms: _53  and  _54
REMARK   27  A    between atoms: _53  and  _56
REMARK   28  A    between atoms: _56  and  _57
REMARK   29  A    between atoms: _57  and  _58
REMARK   30  A    between atoms: _58  and  _59
REMARK   31  A    between atoms: _59  and  _60
REMARK   32  A    between atoms: _64  and  _66
REMARK   33  A    between atoms: _66  and  _67
REMARK   34  A    between atoms: _66  and  _69
REMARK   35  A    between atoms: _69  and  _70
REMARK   36  A    between atoms: _72  and  _74
REMARK   37  A    between atoms: _74  and  _75
REMARK   38  A    between atoms: _74  and  _77
REMARK   39  A    between atoms: _77  and  _78
REMARK   40  A    between atoms: _84  and  _86
REMARK   41  A    between atoms: _86  and  _87
REMARK   42  A    between atoms: _86  and  _89
REMARK   43  A    between atoms: _89  and  _90
REMARK   44  A    between atoms: _92  and  _94
REMARK   45  A    between atoms: _94  and  _95
REMARK   46  A    between atoms: _94  and  _97
REMARK   47  A    between atoms: _97  and  _98
REMARK   48  A    between atoms: _103  and  _104
REMARK   49  A    between atoms: _106  and  _108
REMARK   50  A    between atoms: _108  and  _109
REMARK   51  A    between atoms: _112  and  _114
REMARK   52  A    between atoms: _114  and  _115
REMARK   53  A    between atoms: _114  and  _117
REMARK   54  A    between atoms: _117  and  _118
REMARK   55  A    between atoms: _124  and  _126
REMARK   56  A    between atoms: _126  and  _127
REMARK   57  A    between atoms: _126  and  _129
REMARK   58  A    between atoms: _129  and  _130
REMARK   59  A    between atoms: _133  and  _135
REMARK   60  A    between atoms: _135  and  _136
REMARK   61  A    between atoms: _135  and  _138
REMARK   62  A    between atoms: _138  and  _139
REMARK   63  A    between atoms: _142  and  _144
REMARK   64  A    between atoms: _144  and  _145
REMARK   65  A    between atoms: _148  and  _150
REMARK   66  A    between atoms: _150  and  _151
REMARK   67  A    between atoms: _150  and  _153
REMARK   68  A    between atoms: _156  and  _158
REMARK   69  A    between atoms: _158  and  _159
REMARK   70  A    between atoms: _158  and  _161
REMARK   71  A    between atoms: _161  and  _162
REMARK   72  A    between atoms: _172  and  _174
REMARK   73  A    between atoms: _174  and  _175
REMARK   74  A    between atoms: _178  and  _180
REMARK   75  A    between atoms: _180  and  _181
REMARK   76  A    between atoms: _180  and  _183
REMARK   77  A    between atoms: _183  and  _184
REMARK   78  A    between atoms: _187  and  _189
REMARK   79  A    between atoms: _189  and  _190
REMARK   80  A    between atoms: _189  and  _192
REMARK   81  A    between atoms: _192  and  _193
REMARK   82  A    between atoms: _198  and  _199
REMARK   83  A    between atoms: _201  and  _203
REMARK   84  A    between atoms: _203  and  _204
REMARK   85  A    between atoms: _207  and  _209
REMARK   86  A    between atoms: _209  and  _210
REMARK   87  A    between atoms: _209  and  _212
REMARK   88  A    between atoms: _215  and  _217
REMARK   89  A    between atoms: _217  and  _218
REMARK   90  A    between atoms: _217  and  _220
REMARK   91  A    between atoms: _222  and  _224
REMARK   92  A    between atoms: _224  and  _225
REMARK   93  A    between atoms: _224  and  _227
REMARK   94  A    between atoms: _227  and  _228
REMARK   95  A    between atoms: _228  and  _229
REMARK   96  A    between atoms: _229  and  _230
REMARK   97  A    between atoms: _239  and  _241
REMARK   98  A    between atoms: _241  and  _242
REMARK   99  A    between atoms: _241  and  _244
REMARK  100  A    between atoms: _244  and  _245
REMARK  101  A    between atoms: _245  and  _246
REMARK  102  A    between atoms: _246  and  _247
REMARK  103  A    between atoms: _247  and  _248
REMARK  104  A    between atoms: _252  and  _254
REMARK  105  A    between atoms: _254  and  _255
REMARK  106  A    between atoms: _254  and  _257
REMARK  107  A    between atoms: _257  and  _258
REMARK  108  A    between atoms: _261  and  _263
REMARK  109  A    between atoms: _263  and  _264
REMARK  110  A    between atoms: _263  and  _266
REMARK  111  A    between atoms: _266  and  _267
REMARK  112  A    between atoms: _270  and  _272
REMARK  113  A    between atoms: _272  and  _273
REMARK  114  A    between atoms: _272  and  _275
REMARK  115  A    between atoms: _275  and  _276
REMARK  116  A    between atoms: _279  and  _281
REMARK  117  A    between atoms: _281  and  _282
REMARK  118  A    between atoms: _281  and  _284
REMARK  119  A    between atoms: _284  and  _285
REMARK  120  A    between atoms: _291  and  _293
REMARK  121  A    between atoms: _293  and  _294
REMARK  122  A    between atoms: _293  and  _296
REMARK  123  A    between atoms: _296  and  _297
REMARK  124  A    between atoms: _300  and  _302
REMARK  125  A    between atoms: _302  and  _303
REMARK  126  A    between atoms: _302  and  _305
REMARK  127  A    between atoms: _305  and  _306
REMARK  128  A    between atoms: _309  and  _311
REMARK  129  A    between atoms: _311  and  _312
REMARK  130  A    between atoms: _311  and  _314
REMARK  131  A    between atoms: _314  and  _315
REMARK  132  A    between atoms: _318  and  _320
REMARK  133  A    between atoms: _320  and  _321
REMARK  134  A    between atoms: _320  and  _323
REMARK  135  A    between atoms: _326  and  _328
REMARK  136  A    between atoms: _328  and  _329
REMARK  137  A    between atoms: _328  and  _331
REMARK  138  A    between atoms: _331  and  _332
REMARK  139  A    between atoms: _337  and  _338
REMARK  140  A    between atoms: _340  and  _342
REMARK  141  A    between atoms: _342  and  _343
REMARK  142  A    between atoms: _345  and  _347
REMARK  143  A    between atoms: _347  and  _348
REMARK  144  A    between atoms: _347  and  _350
REMARK  145  A    between atoms: _353  and  _355
REMARK  146  A    between atoms: _355  and  _356
REMARK  147  A    between atoms: _359  and  _361
REMARK  148  A    between atoms: _361  and  _362
REMARK  149  A    between atoms: _361  and  _364
REMARK  150  A    between atoms: _364  and  _365
REMARK  151  A    between atoms: _368  and  _370
REMARK  152  A    between atoms: _370  and  _371
REMARK  153  A    between atoms: _370  and  _373
REMARK  154  A    between atoms: _376  and  _378
REMARK  155  A    between atoms: _378  and  _379
REMARK  156  A    between atoms: _381  and  _383
REMARK  157  A    between atoms: _383  and  _384
REMARK  158  A    between atoms: _383  and  _386
REMARK  159  A    between atoms: _389  and  _391
REMARK  160  A    between atoms: _391  and  _392
REMARK  161  A    between atoms: _391  and  _394
REMARK  162  A    between atoms: _394  and  _395
REMARK  163  A    between atoms: _398  and  _400
REMARK  164  A    between atoms: _400  and  _401
REMARK  165  A    between atoms: _400  and  _403
REMARK  166  A    between atoms: _403  and  _404
REMARK  167  A    between atoms: _407  and  _409
REMARK  168  A    between atoms: _409  and  _410
REMARK  169  A    between atoms: _409  and  _412
REMARK  170  A    between atoms: _412  and  _413
REMARK  171  A    between atoms: _416  and  _418
REMARK  172  A    between atoms: _418  and  _419
REMARK  173  A    between atoms: _418  and  _421
REMARK  174  A    between atoms: _421  and  _422
REMARK  175  A    between atoms: _424  and  _426
REMARK  176  A    between atoms: _426  and  _427
REMARK  177  A    between atoms: _426  and  _429
REMARK  178  A    between atoms: _429  and  _430
REMARK  179  A    between atoms: _433  and  _435
REMARK  180  A    between atoms: _435  and  _436
REMARK  181  A    between atoms: _435  and  _438
REMARK  182  A    between atoms: _438  and  _439
REMARK  183  A    between atoms: _439  and  _440
REMARK  184  A    between atoms: _445  and  _447
REMARK  185  A    between atoms: _447  and  _448
REMARK  186  A    between atoms: _447  and  _450
REMARK  187  A    between atoms: _450  and  _451
REMARK  188  A    between atoms: _454  and  _456
REMARK  189  A    between atoms: _456  and  _457
REMARK  190  A    between atoms: _456  and  _459
REMARK  191  A    between atoms: _459  and  _460
REMARK  192  A    between atoms: _465  and  _467
REMARK  193  A    between atoms: _467  and  _468
REMARK  194  A    between atoms: _467  and  _470
REMARK  195  A    between atoms: _470  and  _471
REMARK  196  A    between atoms: _474  and  _476
REMARK  197  A    between atoms: _476  and  _477
REMARK  198  A    between atoms: _476  and  _479
REMARK  199  A    between atoms: _479  and  _480
REMARK  200  A    between atoms: _480  and  _481
REMARK  201  A    between atoms: _481  and  _482
REMARK  202  A    between atoms: _491  and  _493
REMARK  203  A    between atoms: _493  and  _494
REMARK  204  A    between atoms: _493  and  _496
REMARK  205  A    between atoms: _496  and  _497
REMARK  206  A    between atoms: _500  and  _502
REMARK  207  A    between atoms: _502  and  _503
REMARK  208  A    between atoms: _502  and  _505
REMARK  209  A    between atoms: _505  and  _506
REMARK  210  A    between atoms: _506  and  _507
REMARK  211  A    between atoms: _510  and  _512
REMARK  212  A    between atoms: _512  and  _513
REMARK  213  A    between atoms: _512  and  _515
REMARK  214  A    between atoms: _515  and  _516
REMARK  215  A    between atoms: _522  and  _524
REMARK  216  A    between atoms: _524  and  _525
REMARK  217  A    between atoms: _524  and  _527
REMARK  218  A    between atoms: _527  and  _528
REMARK  219  A    between atoms: _531  and  _533
REMARK  220  A    between atoms: _533  and  _534
REMARK  221  A    between atoms: _533  and  _536
REMARK  222  A    between atoms: _536  and  _537
REMARK  223  A    between atoms: _540  and  _542
REMARK  224  A    between atoms: _542  and  _543
REMARK  225  A    between atoms: _542  and  _545
REMARK  226  A    between atoms: _545  and  _546
REMARK  227  A    between atoms: _546  and  _547
REMARK  228  A    between atoms: _550  and  _552
REMARK  229  A    between atoms: _552  and  _553
REMARK  230  A    between atoms: _552  and  _555
REMARK  231  A    between atoms: _555  and  _556
REMARK  232  A    between atoms: _559  and  _561
REMARK  233  A    between atoms: _561  and  _562
REMARK  234  A    between atoms: _565  and  _567
REMARK  235  A    between atoms: _567  and  _568
REMARK  236  A    between atoms: _571  and  _573
REMARK  237  A    between atoms: _573  and  _574
REMARK  238  A    between atoms: _573  and  _576
REMARK  239  A    between atoms: _576  and  _577
REMARK  240  A    between atoms: _577  and  _578
REMARK  241  A    between atoms: _578  and  _579
REMARK  242  A    between atoms: _588  and  _590
REMARK  243  A    between atoms: _590  and  _591
REMARK  244  A    between atoms: _590  and  _593
REMARK  245  A    between atoms: _593  and  _594
REMARK  246  A    between atoms: _597  and  _599
REMARK  247  A    between atoms: _599  and  _600
REMARK  248  A    between atoms: _603  and  _605
REMARK  249  A    between atoms: _605  and  _606
REMARK  250  A    between atoms: _605  and  _608
REMARK  251  A    between atoms: _608  and  _609
REMARK  252  A    between atoms: _612  and  _614
REMARK  253  A    between atoms: _614  and  _615
REMARK  254  A    between atoms: _614  and  _617
REMARK  255  A    between atoms: _617  and  _618
REMARK  256  A    between atoms: _618  and  _619
REMARK  257  A    between atoms: _622  and  _624
REMARK  258  A    between atoms: _624  and  _625
REMARK  259  A    between atoms: _624  and  _627
REMARK  260  A    between atoms: _627  and  _628
REMARK  261  A    between atoms: _631  and  _633
REMARK  262  A    between atoms: _633  and  _634
REMARK  263  A    between atoms: _633  and  _636
REMARK  264  A    between atoms: _636  and  _637
REMARK  265  A    between atoms: _640  and  _642
REMARK  266  A    between atoms: _642  and  _643
REMARK  267  A    between atoms: _642  and  _645
REMARK  268  A    between atoms: _645  and  _646
REMARK  269  A    between atoms: _646  and  _647
REMARK  270  A    between atoms: _647  and  _648
REMARK  271  A    between atoms: _657  and  _659
REMARK  272  A    between atoms: _659  and  _660
REMARK  273  A    between atoms: _659  and  _662
REMARK  274  A    between atoms: _665  and  _667
REMARK  275  A    between atoms: _667  and  _668
REMARK  276  A    between atoms: _667  and  _670
REMARK  277  A    between atoms: _670  and  _671
REMARK  278  A    between atoms: _677  and  _679
REMARK  279  A    between atoms: _679  and  _680
REMARK  280  A    between atoms: _679  and  _682
REMARK  281  A    between atoms: _685  and  _687
REMARK  282  A    between atoms: _687  and  _688
REMARK  283  A    between atoms: _687  and  _690
REMARK  284  A    between atoms: _690  and  _691
REMARK  285  A    between atoms: _691  and  _692
REMARK  286  A    between atoms: _692  and  _693
REMARK  287  A    between atoms: _693  and  _694
REMARK                            x       y       z     vdW  Elec       q    Type
REMARK                         _______ _______ _______ _____ _____    ______ ____
ROOT
ATOM      1  C   THR A   1      34.668  -8.141  -0.292  0.00  0.00    +0.241 C 
ATOM      2  N   VAL A   2      34.826  -8.164   1.032  0.00  0.00    -0.298 N 
ATOM      3  H   VAL A   2      35.008  -9.069   1.512  0.00  0.00    +0.150 HD
ATOM      4  O   THR A   1      34.357  -7.132  -0.930  0.00  0.00    -0.274 OA
ENDROOT
BRANCH   1   5
ATOM      5  CA  THR A   1      34.879  -9.457  -1.013  0.00  0.00    +0.172 C 
BRANCH   5   6
ATOM      6  N   THR A   1      36.070 -10.135  -0.528  0.00  0.00    -0.236 NA
ATOM      7  H   THR A   1      35.962 -11.033  -0.014  0.00  0.00    +0.142 HD
ENDBRANCH   5   6
BRANCH   5   8
ATOM      8  CB  THR A   1      33.616 -10.323  -0.826  0.00  0.00    +0.135 C 
ATOM      9  CG2 THR A   1      32.417  -9.660  -1.503  0.00  0.00    +0.034 C 
BRANCH   8  10
ATOM     10  OG1 THR A   1      33.839 -11.590  -1.450  0.00  0.00    -0.383 OA
ATOM     11  HG1 THR A   1      34.618 -12.032  -1.028  0.00  0.00    +0.210 HD
ENDBRANCH   8  10
ENDBRANCH   5   8
ENDBRANCH   1   5
BRANCH   2  12
ATOM     12  CA  VAL A   2      34.747  -6.940   1.813  0.00  0.00    +0.137 C 
BRANCH  12  13
ATOM     13  CB  VAL A   2      34.722  -7.235   3.335  0.00  0.00    +0.026 C 
ATOM     14  CG2 VAL A   2      34.751  -5.934   4.141  0.00  0.00    +0.002 C 
ATOM     15  CG1 VAL A   2      33.491  -8.095   3.668  0.00  0.00    +0.002 C 
ENDBRANCH  12  13
BRANCH  12  16
ATOM     16  C   VAL A   2      35.830  -5.925   1.403  0.00  0.00    +0.227 C 
ATOM     17  O   VAL A   2      35.504  -4.752   1.238  0.00  0.00    -0.286 OA
ENDBRANCH  12  16
ENDBRANCH   2  12
TORSDOF 7
REMARK  Name = ../refined-set-2016/3vje/3vje_pocket.pdb
REMARK  287 active torsions:
REMARK  status: ('A' for Active; 'I' for Inactive)
REMARK    1  A    between atoms: _1  and  _3
REMARK    2  A    between atoms: _3  and  _4
REMARK    3  A    between atoms: _3  and  _6
REMARK    4  A    between atoms: _6  and  _7
REMARK    5  A    between atoms: _10  and  _12
REMARK    6  A    between atoms: _12  and  _13
REMARK    7  A    between atoms: _12  and  _15
REMARK    8  A    between atoms: _15  and  _16
REMARK    9  A    between atoms: _16  and  _17
REMARK   10  A    between atoms: _19  and  _21
REMARK   11  A    between atoms: _21  and  _22
REMARK   12  A    between atoms: _21  and  _24
REMARK   13  A    between atoms: _24  and  _25
REMARK   14  A    between atoms: _25  and  _26
REMARK   15  A    between atoms: _26  and  _27
REMARK   16  A    between atoms: _27  and  _28
REMARK   17  A    between atoms: _32  and  _34
REMARK   18  A    between atoms: _34  and  _35
REMARK   19  A    between atoms: _34  and  _37
REMARK   20  A    between atoms: _37  and  _38
REMARK   21  A    between atoms: _43  and  _45
REMARK   22  A    between atoms: _45  and  _46
REMARK   23  A    between atoms: _45  and  _48
REMARK   24  A    between atoms: _48  and  _49
REMARK   25  A    between atoms: _51  and  _53
REMARK   26  A    between atoms: _53  and  _54
REMARK   27  A    between atoms: _53  and  _56
REMARK   28  A    between atoms: _56  and  _57
REMARK   29  A    between atoms: _57  and  _58
REMARK   30  A    between atoms: _58  and  _59
REMARK   31  A    between atoms: _59  and  _60
REMARK   32  A    between atoms: _64  and  _66
REMARK   33  A    between atoms: _66  and  _67
REMARK   34  A    between atoms: _66  and  _69
REMARK   35  A    between atoms: _69  and  _70
REMARK   36  A    between atoms: _72  and  _74
REMARK   37  A    between atoms: _74  and  _75
REMARK   38  A    between atoms: _74  and  _77
REMARK   39  A    between atoms: _77  and  _78
REMARK   40  A    between atoms: _84  and  _86
REMARK   41  A    between atoms: _86  and  _87
REMARK   42  A    between atoms: _86  and  _89
REMARK   43  A    between atoms: _89  and  _90
REMARK   44  A    between atoms: _92  and  _94
REMARK   45  A    between atoms: _94  and  _95
REMARK   46  A    between atoms: _94  and  _97
REMARK   47  A    between atoms: _97  and  _98
REMARK   48  A    between atoms: _103  and  _104
REMARK   49  A    between atoms: _106  and  _108
REMARK   50  A    between atoms: _108  and  _109
REMARK   51  A    between atoms: _112  and  _114
REMARK   52  A    between atoms: _114  and  _115
REMARK   53  A    between atoms: _114  and  _117
REMARK   54  A    between atoms: _117  and  _118
REMARK   55  A    between atoms: _124  and  _126
REMARK   56  A    between atoms: _126  and  _127
REMARK   57  A    between atoms: _126  and  _129
REMARK   58  A    between atoms: _129  and  _130
REMARK   59  A    between atoms: _133  and  _135
REMARK   60  A    between atoms: _135  and  _136
REMARK   61  A    between atoms: _135  and  _138
REMARK   62  A    between atoms: _138  and  _139
REMARK   63  A    between atoms: _142  and  _144
REMARK   64  A    between atoms: _144  and  _145
REMARK   65  A    between atoms: _148  and  _150
REMARK   66  A    between atoms: _150  and  _151
REMARK   67  A    between atoms: _150  and  _153
REMARK   68  A    between atoms: _156  and  _158
REMARK   69  A    between atoms: _158  and  _159
REMARK   70  A    between atoms: _158  and  _161
REMARK   71  A    between atoms: _161  and  _162
REMARK   72  A    between atoms: _172  and  _174
REMARK   73  A    between atoms: _174  and  _175
REMARK   74  A    between atoms: _178  and  _180
REMARK   75  A    between atoms: _180  and  _181
REMARK   76  A    between atoms: _180  and  _183
REMARK   77  A    between atoms: _183  and  _184
REMARK   78  A    between atoms: _187  and  _189
REMARK   79  A    between atoms: _189  and  _190
REMARK   80  A    between atoms: _189  and  _192
REMARK   81  A    between atoms: _192  and  _193
REMARK   82  A    between atoms: _198  and  _199
REMARK   83  A    between atoms: _201  and  _203
REMARK   84  A    between atoms: _203  and  _204
REMARK   85  A    between atoms: _207  and  _209
REMARK   86  A    between atoms: _209  and  _210
REMARK   87  A    between atoms: _209  and  _212
REMARK   88  A    between atoms: _215  and  _217
REMARK   89  A    between atoms: _217  and  _218
REMARK   90  A    between atoms: _217  and  _220
REMARK   91  A    between atoms: _222  and  _224
REMARK   92  A    between atoms: _224  and  _225
REMARK   93  A    between atoms: _224  and  _227
REMARK   94  A    between atoms: _227  and  _228
REMARK   95  A    between atoms: _228  and  _229
REMARK   96  A    between atoms: _229  and  _230
REMARK   97  A    between atoms: _239  and  _241
REMARK   98  A    between atoms: _241  and  _242
REMARK   99  A    between atoms: _241  and  _244
REMARK  100  A    between atoms: _244  and  _245
REMARK  101  A    between atoms: _245  and  _246
REMARK  102  A    between atoms: _246  and  _247
REMARK  103  A    between atoms: _247  and  _248
REMARK  104  A    between atoms: _252  and  _254
REMARK  105  A    between atoms: _254  and  _255
REMARK  106  A    between atoms: _254  and  _257
REMARK  107  A    between atoms: _257  and  _258
REMARK  108  A    between atoms: _261  and  _263
REMARK  109  A    between atoms: _263  and  _264
REMARK  110  A    between atoms: _263  and  _266
REMARK  111  A    between atoms: _266  and  _267
REMARK  112  A    between atoms: _270  and  _272
REMARK  113  A    between atoms: _272  and  _273
REMARK  114  A    between atoms: _272  and  _275
REMARK  115  A    between atoms: _275  and  _276
REMARK  116  A    between atoms: _279  and  _281
REMARK  117  A    between atoms: _281  and  _282
REMARK  118  A    between atoms: _281  and  _284
REMARK  119  A    between atoms: _284  and  _285
REMARK  120  A    between atoms: _291  and  _293
REMARK  121  A    between atoms: _293  and  _294
REMARK  122  A    between atoms: _293  and  _296
REMARK  123  A    between atoms: _296  and  _297
REMARK  124  A    between atoms: _300  and  _302
REMARK  125  A    between atoms: _302  and  _303
REMARK  126  A    between atoms: _302  and  _305
REMARK  127  A    between atoms: _305  and  _306
REMARK  128  A    between atoms: _309  and  _311
REMARK  129  A    between atoms: _311  and  _312
REMARK  130  A    between atoms: _311  and  _314
REMARK  131  A    between atoms: _314  and  _315
REMARK  132  A    between atoms: _318  and  _320
REMARK  133  A    between atoms: _320  and  _321
REMARK  134  A    between atoms: _320  and  _323
REMARK  135  A    between atoms: _326  and  _328
REMARK  136  A    between atoms: _328  and  _329
REMARK  137  A    between atoms: _328  and  _331
REMARK  138  A    between atoms: _331  and  _332
REMARK  139  A    between atoms: _337  and  _338
REMARK  140  A    between atoms: _340  and  _342
REMARK  141  A    between atoms: _342  and  _343
REMARK  142  A    between atoms: _345  and  _347
REMARK  143  A    between atoms: _347  and  _348
REMARK  144  A    between atoms: _347  and  _350
REMARK  145  A    between atoms: _353  and  _355
REMARK  146  A    between atoms: _355  and  _356
REMARK  147  A    between atoms: _359  and  _361
REMARK  148  A    between atoms: _361  and  _362
REMARK  149  A    between atoms: _361  and  _364
REMARK  150  A    between atoms: _364  and  _365
REMARK  151  A    between atoms: _368  and  _370
REMARK  152  A    between atoms: _370  and  _371
REMARK  153  A    between atoms: _370  and  _373
REMARK  154  A    between atoms: _376  and  _378
REMARK  155  A    between atoms: _378  and  _379
REMARK  156  A    between atoms: _381  and  _383
REMARK  157  A    between atoms: _383  and  _384
REMARK  158  A    between atoms: _383  and  _386
REMARK  159  A    between atoms: _389  and  _391
REMARK  160  A    between atoms: _391  and  _392
REMARK  161  A    between atoms: _391  and  _394
REMARK  162  A    between atoms: _394  and  _395
REMARK  163  A    between atoms: _398  and  _400
REMARK  164  A    between atoms: _400  and  _401
REMARK  165  A    between atoms: _400  and  _403
REMARK  166  A    between atoms: _403  and  _404
REMARK  167  A    between atoms: _407  and  _409
REMARK  168  A    between atoms: _409  and  _410
REMARK  169  A    between atoms: _409  and  _412
REMARK  170  A    between atoms: _412  and  _413
REMARK  171  A    between atoms: _416  and  _418
REMARK  172  A    between atoms: _418  and  _419
REMARK  173  A    between atoms: _418  and  _421
REMARK  174  A    between atoms: _421  and  _422
REMARK  175  A    between atoms: _424  and  _426
REMARK  176  A    between atoms: _426  and  _427
REMARK  177  A    between atoms: _426  and  _429
REMARK  178  A    between atoms: _429  and  _430
REMARK  179  A    between atoms: _433  and  _435
REMARK  180  A    between atoms: _435  and  _436
REMARK  181  A    between atoms: _435  and  _438
REMARK  182  A    between atoms: _438  and  _439
REMARK  183  A    between atoms: _439  and  _440
REMARK  184  A    between atoms: _445  and  _447
REMARK  185  A    between atoms: _447  and  _448
REMARK  186  A    between atoms: _447  and  _450
REMARK  187  A    between atoms: _450  and  _451
REMARK  188  A    between atoms: _454  and  _456
REMARK  189  A    between atoms: _456  and  _457
REMARK  190  A    between atoms: _456  and  _459
REMARK  191  A    between atoms: _459  and  _460
REMARK  192  A    between atoms: _465  and  _467
REMARK  193  A    between atoms: _467  and  _468
REMARK  194  A    between atoms: _467  and  _470
REMARK  195  A    between atoms: _470  and  _471
REMARK  196  A    between atoms: _474  and  _476
REMARK  197  A    between atoms: _476  and  _477
REMARK  198  A    between atoms: _476  and  _479
REMARK  199  A    between atoms: _479  and  _480
REMARK  200  A    between atoms: _480  and  _481
REMARK  201  A    between atoms: _481  and  _482
REMARK  202  A    between atoms: _491  and  _493
REMARK  203  A    between atoms: _493  and  _494
REMARK  204  A    between atoms: _493  and  _496
REMARK  205  A    between atoms: _496  and  _497
REMARK  206  A    between atoms: _500  and  _502
REMARK  207  A    between atoms: _502  and  _503
REMARK  208  A    between atoms: _502  and  _505
REMARK  209  A    between atoms: _505  and  _506
REMARK  210  A    between atoms: _506  and  _507
REMARK  211  A    between atoms: _510  and  _512
REMARK  212  A    between atoms: _512  and  _513
REMARK  213  A    between atoms: _512  and  _515
REMARK  214  A    between atoms: _515  and  _516
REMARK  215  A    between atoms: _522  and  _524
REMARK  216  A    between atoms: _524  and  _525
REMARK  217  A    between atoms: _524  and  _527
REMARK  218  A    between atoms: _527  and  _528
REMARK  219  A    between atoms: _531  and  _533
REMARK  220  A    between atoms: _533  and  _534
REMARK  221  A    between atoms: _533  and  _536
REMARK  222  A    between atoms: _536  and  _537
REMARK  223  A    between atoms: _540  and  _542
REMARK  224  A    between atoms: _542  and  _543
REMARK  225  A    between atoms: _542  and  _545
REMARK  226  A    between atoms: _545  and  _546
REMARK  227  A    between atoms: _546  and  _547
REMARK  228  A    between atoms: _550  and  _552
REMARK  229  A    between atoms: _552  and  _553
REMARK  230  A    between atoms: _552  and  _555
REMARK  231  A    between atoms: _555  and  _556
REMARK  232  A    between atoms: _559  and  _561
REMARK  233  A    between atoms: _561  and  _562
REMARK  234  A    between atoms: _565  and  _567
REMARK  235  A    between atoms: _567  and  _568
REMARK  236  A    between atoms: _571  and  _573
REMARK  237  A    between atoms: _573  and  _574
REMARK  238  A    between atoms: _573  and  _576
REMARK  239  A    between atoms: _576  and  _577
REMARK  240  A    between atoms: _577  and  _578
REMARK  241  A    between atoms: _578  and  _579
REMARK  242  A    between atoms: _588  and  _590
REMARK  243  A    between atoms: _590  and  _591
REMARK  244  A    between atoms: _590  and  _593
REMARK  245  A    between atoms: _593  and  _594
REMARK  246  A    between atoms: _597  and  _599
REMARK  247  A    between atoms: _599  and  _600
REMARK  248  A    between atoms: _603  and  _605
REMARK  249  A    between atoms: _605  and  _606
REMARK  250  A    between atoms: _605  and  _608
REMARK  251  A    between atoms: _608  and  _609
REMARK  252  A    between atoms: _612  and  _614
REMARK  253  A    between atoms: _614  and  _615
REMARK  254  A    between atoms: _614  and  _617
REMARK  255  A    between atoms: _617  and  _618
REMARK  256  A    between atoms: _618  and  _619
REMARK  257  A    between atoms: _622  and  _624
REMARK  258  A    between atoms: _624  and  _625
REMARK  259  A    between atoms: _624  and  _627
REMARK  260  A    between atoms: _627  and  _628
REMARK  261  A    between atoms: _631  and  _633
REMARK  262  A    between atoms: _633  and  _634
REMARK  263  A    between atoms: _633  and  _636
REMARK  264  A    between atoms: _636  and  _637
REMARK  265  A    between atoms: _640  and  _642
REMARK  266  A    between atoms: _642  and  _643
REMARK  267  A    between atoms: _642  and  _645
REMARK  268  A    between atoms: _645  and  _646
REMARK  269  A    between atoms: _646  and  _647
REMARK  270  A    between atoms: _647  and  _648
REMARK  271  A    between atoms: _657  and  _659
REMARK  272  A    between atoms: _659  and  _660
REMARK  273  A    between atoms: _659  and  _662
REMARK  274  A    between atoms: _665  and  _667
REMARK  275  A    between atoms: _667  and  _668
REMARK  276  A    between atoms: _667  and  _670
REMARK  277  A    between atoms: _670  and  _671
REMARK  278  A    between atoms: _677  and  _679
REMARK  279  A    between atoms: _679  and  _680
REMARK  280  A    between atoms: _679  and  _682
REMARK  281  A    between atoms: _685  and  _687
REMARK  282  A    between atoms: _687  and  _688
REMARK  283  A    between atoms: _687  and  _690
REMARK  284  A    between atoms: _690  and  _691
REMARK  285  A    between atoms: _691  and  _692
REMARK  286  A    between atoms: _692  and  _693
REMARK  287  A    between atoms: _693  and  _694
REMARK                            x       y       z     vdW  Elec       q    Type
REMARK                         _______ _______ _______ _____ _____    ______ ____
ROOT
ATOM      1  CG  TYR A   1      28.420  -8.198  -3.408  0.00  0.00    -0.020 A 
ATOM      2  CD2 TYR A   1      29.497  -7.592  -2.752  0.00  0.00    -0.001 A 
ATOM      3  CE2 TYR A   1      29.297  -6.872  -1.567  0.00  0.00    +0.036 A 
ATOM      4  CZ  TYR A   1      28.012  -6.776  -1.039  0.00  0.00    +0.134 A 
ATOM      5  CE1 TYR A   1      26.948  -7.357  -1.679  0.00  0.00    +0.036 A 
ATOM      6  CD1 TYR A   1      27.152  -8.071  -2.849  0.00  0.00    -0.001 A 
ENDROOT
BRANCH   4   7
ATOM      7  OH  TYR A   1      27.747  -6.092   0.127  0.00  0.00    -0.506 OA
ATOM      8  HH  TYR A   1      28.590  -5.722   0.490  0.00  0.00    +0.292 HD
ENDBRANCH   4   7
BRANCH   1   9
ATOM      9  CB  TYR A   1      28.619  -8.987  -4.688  0.00  0.00    +0.051 C 
BRANCH   9  10
ATOM     10  CA  TYR A   1      28.991 -10.455  -4.451  0.00  0.00    +0.137 C 
BRANCH  10  11
ATOM     11  N   TYR A   1      28.932 -11.185  -5.712  0.00  0.00    -0.239 NA
ATOM     12  H   TYR A   1      28.521 -10.711  -6.542  0.00  0.00    +0.142 HD
ENDBRANCH  10  11
BRANCH  10  13
ATOM     13  C   TYR A   1      28.077 -11.071  -3.374  0.00  0.00    +0.224 C 
ATOM     14  O   TYR A   1      28.480 -11.159  -2.214  0.00  0.00    -0.287 OA
ENDBRANCH  10  13
ENDBRANCH   9  10
ENDBRANCH   1   9
TORSDOF 5
REMARK  Name = ../refined-set-2016/3vje/3vje_pocket.pdb
REMARK  287 active torsions:
REMARK  status: ('A' for Active; 'I' for Inactive)
REMARK    1  A    between atoms: _1  and  _3
REMARK    2  A    between atoms: _3  and  _4
REMARK    3  A    between atoms: _3  and  _6
REMARK    4  A    between atoms: _6  and  _7
REMARK    5  A    between atoms: _10  and  _12
REMARK    6  A    between atoms: _12  and  _13
REMARK    7  A    between atoms: _12  and  _15
REMARK    8  A    between atoms: _15  and  _16
REMARK    9  A    between atoms: _16  and  _17
REMARK   10  A    between atoms: _19  and  _21
REMARK   11  A    between atoms: _21  and  _22
REMARK   12  A    between atoms: _21  and  _24
REMARK   13  A    between atoms: _24  and  _25
REMARK   14  A    between atoms: _25  and  _26
REMARK   15  A    between atoms: _26  and  _27
REMARK   16  A    between atoms: _27  and  _28
REMARK   17  A    between atoms: _32  and  _34
REMARK   18  A    between atoms: _34  and  _35
REMARK   19  A    between atoms: _34  and  _37
REMARK   20  A    between atoms: _37  and  _38
REMARK   21  A    between atoms: _43  and  _45
REMARK   22  A    between atoms: _45  and  _46
REMARK   23  A    between atoms: _45  and  _48
REMARK   24  A    between atoms: _48  and  _49
REMARK   25  A    between atoms: _51  and  _53
REMARK   26  A    between atoms: _53  and  _54
REMARK   27  A    between atoms: _53  and  _56
REMARK   28  A    between atoms: _56  and  _57
REMARK   29  A    between atoms: _57  and  _58
REMARK   30  A    between atoms: _58  and  _59
REMARK   31  A    between atoms: _59  and  _60
REMARK   32  A    between atoms: _64  and  _66
REMARK   33  A    between atoms: _66  and  _67
REMARK   34  A    between atoms: _66  and  _69
REMARK   35  A    between atoms: _69  and  _70
REMARK   36  A    between atoms: _72  and  _74
REMARK   37  A    between atoms: _74  and  _75
REMARK   38  A    between atoms: _74  and  _77
REMARK   39  A    between atoms: _77  and  _78
REMARK   40  A    between atoms: _84  and  _86
REMARK   41  A    between atoms: _86  and  _87
REMARK   42  A    between atoms: _86  and  _89
REMARK   43  A    between atoms: _89  and  _90
REMARK   44  A    between atoms: _92  and  _94
REMARK   45  A    between atoms: _94  and  _95
REMARK   46  A    between atoms: _94  and  _97
REMARK   47  A    between atoms: _97  and  _98
REMARK   48  A    between atoms: _103  and  _104
REMARK   49  A    between atoms: _106  and  _108
REMARK   50  A    between atoms: _108  and  _109
REMARK   51  A    between atoms: _112  and  _114
REMARK   52  A    between atoms: _114  and  _115
REMARK   53  A    between atoms: _114  and  _117
REMARK   54  A    between atoms: _117  and  _118
REMARK   55  A    between atoms: _124  and  _126
REMARK   56  A    between atoms: _126  and  _127
REMARK   57  A    between atoms: _126  and  _129
REMARK   58  A    between atoms: _129  and  _130
REMARK   59  A    between atoms: _133  and  _135
REMARK   60  A    between atoms: _135  and  _136
REMARK   61  A    between atoms: _135  and  _138
REMARK   62  A    between atoms: _138  and  _139
REMARK   63  A    between atoms: _142  and  _144
REMARK   64  A    between atoms: _144  and  _145
REMARK   65  A    between atoms: _148  and  _150
REMARK   66  A    between atoms: _150  and  _151
REMARK   67  A    between atoms: _150  and  _153
REMARK   68  A    between atoms: _156  and  _158
REMARK   69  A    between atoms: _158  and  _159
REMARK   70  A    between atoms: _158  and  _161
REMARK   71  A    between atoms: _161  and  _162
REMARK   72  A    between atoms: _172  and  _174
REMARK   73  A    between atoms: _174  and  _175
REMARK   74  A    between atoms: _178  and  _180
REMARK   75  A    between atoms: _180  and  _181
REMARK   76  A    between atoms: _180  and  _183
REMARK   77  A    between atoms: _183  and  _184
REMARK   78  A    between atoms: _187  and  _189
REMARK   79  A    between atoms: _189  and  _190
REMARK   80  A    between atoms: _189  and  _192
REMARK   81  A    between atoms: _192  and  _193
REMARK   82  A    between atoms: _198  and  _199
REMARK   83  A    between atoms: _201  and  _203
REMARK   84  A    between atoms: _203  and  _204
REMARK   85  A    between atoms: _207  and  _209
REMARK   86  A    between atoms: _209  and  _210
REMARK   87  A    between atoms: _209  and  _212
REMARK   88  A    between atoms: _215  and  _217
REMARK   89  A    between atoms: _217  and  _218
REMARK   90  A    between atoms: _217  and  _220
REMARK   91  A    between atoms: _222  and  _224
REMARK   92  A    between atoms: _224  and  _225
REMARK   93  A    between atoms: _224  and  _227
REMARK   94  A    between atoms: _227  and  _228
REMARK   95  A    between atoms: _228  and  _229
REMARK   96  A    between atoms: _229  and  _230
REMARK   97  A    between atoms: _239  and  _241
REMARK   98  A    between atoms: _241  and  _242
REMARK   99  A    between atoms: _241  and  _244
REMARK  100  A    between atoms: _244  and  _245
REMARK  101  A    between atoms: _245  and  _246
REMARK  102  A    between atoms: _246  and  _247
REMARK  103  A    between atoms: _247  and  _248
REMARK  104  A    between atoms: _252  and  _254
REMARK  105  A    between atoms: _254  and  _255
REMARK  106  A    between atoms: _254  and  _257
REMARK  107  A    between atoms: _257  and  _258
REMARK  108  A    between atoms: _261  and  _263
REMARK  109  A    between atoms: _263  and  _264
REMARK  110  A    between atoms: _263  and  _266
REMARK  111  A    between atoms: _266  and  _267
REMARK  112  A    between atoms: _270  and  _272
REMARK  113  A    between atoms: _272  and  _273
REMARK  114  A    between atoms: _272  and  _275
REMARK  115  A    between atoms: _275  and  _276
REMARK  116  A    between atoms: _279  and  _281
REMARK  117  A    between atoms: _281  and  _282
REMARK  118  A    between atoms: _281  and  _284
REMARK  119  A    between atoms: _284  and  _285
REMARK  120  A    between atoms: _291  and  _293
REMARK  121  A    between atoms: _293  and  _294
REMARK  122  A    between atoms: _293  and  _296
REMARK  123  A    between atoms: _296  and  _297
REMARK  124  A    between atoms: _300  and  _302
REMARK  125  A    between atoms: _302  and  _303
REMARK  126  A    between atoms: _302  and  _305
REMARK  127  A    between atoms: _305  and  _306
REMARK  128  A    between atoms: _309  and  _311
REMARK  129  A    between atoms: _311  and  _312
REMARK  130  A    between atoms: _311  and  _314
REMARK  131  A    between atoms: _314  and  _315
REMARK  132  A    between atoms: _318  and  _320
REMARK  133  A    between atoms: _320  and  _321
REMARK  134  A    between atoms: _320  and  _323
REMARK  135  A    between atoms: _326  and  _328
REMARK  136  A    between atoms: _328  and  _329
REMARK  137  A    between atoms: _328  and  _331
REMARK  138  A    between atoms: _331  and  _332
REMARK  139  A    between atoms: _337  and  _338
REMARK  140  A    between atoms: _340  and  _342
REMARK  141  A    between atoms: _342  and  _343
REMARK  142  A    between atoms: _345  and  _347
REMARK  143  A    between atoms: _347  and  _348
REMARK  144  A    between atoms: _347  and  _350
REMARK  145  A    between atoms: _353  and  _355
REMARK  146  A    between atoms: _355  and  _356
REMARK  147  A    between atoms: _359  and  _361
REMARK  148  A    between atoms: _361  and  _362
REMARK  149  A    between atoms: _361  and  _364
REMARK  150  A    between atoms: _364  and  _365
REMARK  151  A    between atoms: _368  and  _370
REMARK  152  A    between atoms: _370  and  _371
REMARK  153  A    between atoms: _370  and  _373
REMARK  154  A    between atoms: _376  and  _378
REMARK  155  A    between atoms: _378  and  _379
REMARK  156  A    between atoms: _381  and  _383
REMARK  157  A    between atoms: _383  and  _384
REMARK  158  A    between atoms: _383  and  _386
REMARK  159  A    between atoms: _389  and  _391
REMARK  160  A    between atoms: _391  and  _392
REMARK  161  A    between atoms: _391  and  _394
REMARK  162  A    between atoms: _394  and  _395
REMARK  163  A    between atoms: _398  and  _400
REMARK  164  A    between atoms: _400  and  _401
REMARK  165  A    between atoms: _400  and  _403
REMARK  166  A    between atoms: _403  and  _404
REMARK  167  A    between atoms: _407  and  _409
REMARK  168  A    between atoms: _409  and  _410
REMARK  169  A    between atoms: _409  and  _412
REMARK  170  A    between atoms: _412  and  _413
REMARK  171  A    between atoms: _416  and  _418
REMARK  172  A    between atoms: _418  and  _419
REMARK  173  A    between atoms: _418  and  _421
REMARK  174  A    between atoms: _421  and  _422
REMARK  175  A    between atoms: _424  and  _426
REMARK  176  A    between atoms: _426  and  _427
REMARK  177  A    between atoms: _426  and  _429
REMARK  178  A    between atoms: _429  and  _430
REMARK  179  A    between atoms: _433  and  _435
REMARK  180  A    between atoms: _435  and  _436
REMARK  181  A    between atoms: _435  and  _438
REMARK  182  A    between atoms: _438  and  _439
REMARK  183  A    between atoms: _439  and  _440
REMARK  184  A    between atoms: _445  and  _447
REMARK  185  A    between atoms: _447  and  _448
REMARK  186  A    between atoms: _447  and  _450
REMARK  187  A    between atoms: _450  and  _451
REMARK  188  A    between atoms: _454  and  _456
REMARK  189  A    between atoms: _456  and  _457
REMARK  190  A    between atoms: _456  and  _459
REMARK  191  A    between atoms: _459  and  _460
REMARK  192  A    between atoms: _465  and  _467
REMARK  193  A    between atoms: _467  and  _468
REMARK  194  A    between atoms: _467  and  _470
REMARK  195  A    between atoms: _470  and  _471
REMARK  196  A    between atoms: _474  and  _476
REMARK  197  A    between atoms: _476  and  _477
REMARK  198  A    between atoms: _476  and  _479
REMARK  199  A    between atoms: _479  and  _480
REMARK  200  A    between atoms: _480  and  _481
REMARK  201  A    between atoms: _481  and  _482
REMARK  202  A    between atoms: _491  and  _493
REMARK  203  A    between atoms: _493  and  _494
REMARK  204  A    between atoms: _493  and  _496
REMARK  205  A    between atoms: _496  and  _497
REMARK  206  A    between atoms: _500  and  _502
REMARK  207  A    between atoms: _502  and  _503
REMARK  208  A    between atoms: _502  and  _505
REMARK  209  A    between atoms: _505  and  _506
REMARK  210  A    between atoms: _506  and  _507
REMARK  211  A    between atoms: _510  and  _512
REMARK  212  A    between atoms: _512  and  _513
REMARK  213  A    between atoms: _512  and  _515
REMARK  214  A    between atoms: _515  and  _516
REMARK  215  A    between atoms: _522  and  _524
REMARK  216  A    between atoms: _524  and  _525
REMARK  217  A    between atoms: _524  and  _527
REMARK  218  A    between atoms: _527  and  _528
REMARK  219  A    between atoms: _531  and  _533
REMARK  220  A    between atoms: _533  and  _534
REMARK  221  A    between atoms: _533  and  _536
REMARK  222  A    between atoms: _536  and  _537
REMARK  223  A    between atoms: _540  and  _542
REMARK  224  A    between atoms: _542  and  _543
REMARK  225  A    between atoms: _542  and  _545
REMARK  226  A    between atoms: _545  and  _546
REMARK  227  A    between atoms: _546  and  _547
REMARK  228  A    between atoms: _550  and  _552
REMARK  229  A    between atoms: _552  and  _553
REMARK  230  A    between atoms: _552  and  _555
REMARK  231  A    between atoms: _555  and  _556
REMARK  232  A    between atoms: _559  and  _561
REMARK  233  A    between atoms: _561  and  _562
REMARK  234  A    between atoms: _565  and  _567
REMARK  235  A    between atoms: _567  and  _568
REMARK  236  A    between atoms: _571  and  _573
REMARK  237  A    between atoms: _573  and  _574
REMARK  238  A    between atoms: _573  and  _576
REMARK  239  A    between atoms: _576  and  _577
REMARK  240  A    between atoms: _577  and  _578
REMARK  241  A    between atoms: _578  and  _579
REMARK  242  A    between atoms: _588  and  _590
REMARK  243  A    between atoms: _590  and  _591
REMARK  244  A    between atoms: _590  and  _593
REMARK  245  A    between atoms: _593  and  _594
REMARK  246  A    between atoms: _597  and  _599
REMARK  247  A    between atoms: _599  and  _600
REMARK  248  A    between atoms: _603  and  _605
REMARK  249  A    between atoms: _605  and  _606
REMARK  250  A    between atoms: _605  and  _608
REMARK  251  A    between atoms: _608  and  _609
REMARK  252  A    between atoms: _612  and  _614
REMARK  253  A    between atoms: _614  and  _615
REMARK  254  A    between atoms: _614  and  _617
REMARK  255  A    between atoms: _617  and  _618
REMARK  256  A    between atoms: _618  and  _619
REMARK  257  A    between atoms: _622  and  _624
REMARK  258  A    between atoms: _624  and  _625
REMARK  259  A    between atoms: _624  and  _627
REMARK  260  A    between atoms: _627  and  _628
REMARK  261  A    between atoms: _631  and  _633
REMARK  262  A    between atoms: _633  and  _634
REMARK  263  A    between atoms: _633  and  _636
REMARK  264  A    between atoms: _636  and  _637
REMARK  265  A    between atoms: _640  and  _642
REMARK  266  A    between atoms: _642  and  _643
REMARK  267  A    between atoms: _642  and  _645
REMARK  268  A    between atoms: _645  and  _646
REMARK  269  A    between atoms: _646  and  _647
REMARK  270  A    between atoms: _647  and  _648
REMARK  271  A    between atoms: _657  and  _659
REMARK  272  A    between atoms: _659  and  _660
REMARK  273  A    between atoms: _659  and  _662
REMARK  274  A    between atoms: _665  and  _667
REMARK  275  A    between atoms: _667  and  _668
REMARK  276  A    between atoms: _667  and  _670
REMARK  277  A    between atoms: _670  and  _671
REMARK  278  A    between atoms: _677  and  _679
REMARK  279  A    between atoms: _679  and  _680
REMARK  280  A    between atoms: _679  and  _682
REMARK  281  A    between atoms: _685  and  _687
REMARK  282  A    between atoms: _687  and  _688
REMARK  283  A    between atoms: _687  and  _690
REMARK  284  A    between atoms: _690  and  _691
REMARK  285  A    between atoms: _691  and  _692
REMARK  286  A    between atoms: _692  and  _693
REMARK  287  A    between atoms: _693  and  _694
REMARK                            x       y       z     vdW  Elec       q    Type
REMARK                         _______ _______ _______ _____ _____    ______ ____
ROOT
ATOM      1  CA  VAL A   2      29.393 -11.625   1.609  0.00  0.00    +0.148 C 
ENDROOT
BRANCH   1   4
ATOM      2  C   GLY A   1      30.834 -12.869   0.153  0.00  0.00    +0.240 C 
ATOM      3  O   GLY A   1      31.570 -13.119   1.107  0.00  0.00    -0.274 OA
ATOM      4  N   VAL A   2      29.704 -12.185   0.300  0.00  0.00    -0.297 N 
ATOM      5  H   VAL A   2      29.055 -12.052  -0.502  0.00  0.00    +0.150 HD
BRANCH   2   6
ATOM      6  CA  GLY A   1      31.194 -13.349  -1.243  0.00  0.00    +0.169 C 
BRANCH   6   7
ATOM      7  N   GLY A   1      30.080 -13.820  -2.072  0.00  0.00    -0.236 NA
ATOM      8  H   GLY A   1      29.925 -13.381  -3.002  0.00  0.00    +0.142 HD
ENDBRANCH   6   7
ENDBRANCH   2   6
ENDBRANCH   1   4
BRANCH   1   9
ATOM      9  C   VAL A   2      28.450 -12.468   2.429  0.00  0.00    +0.241 C 
ATOM     10  O   VAL A   2      28.350 -12.242   3.628  0.00  0.00    -0.273 OA
ATOM     11  N   ALA A   3      27.809 -13.455   1.806  0.00  0.00    -0.298 N 
ATOM     12  H   ALA A   3      28.074 -13.718   0.835  0.00  0.00    +0.150 HD
BRANCH  11  13
ATOM     13  CA  ALA A   3      26.735 -14.166   2.487  0.00  0.00    +0.137 C 
ATOM     14  CB  ALA A   3      25.387 -13.499   2.181  0.00  0.00    +0.030 C 
BRANCH  13  15
ATOM     15  C   ALA A   3      26.694 -15.671   2.190  0.00  0.00    +0.227 C 
ATOM     16  O   ALA A   3      26.450 -16.445   3.110  0.00  0.00    -0.286 OA
ENDBRANCH  13  15
ENDBRANCH  11  13
ENDBRANCH   1   9
BRANCH   1  17
ATOM     17  CB  VAL A   2      28.785 -10.212   1.593  0.00  0.00    +0.027 C 
ATOM     18  CG2 VAL A   2      29.825  -9.219   1.143  0.00  0.00    +0.002 C 
ATOM     19  CG1 VAL A   2      27.455 -10.159   0.797  0.00  0.00    +0.002 C 
ENDBRANCH   1  17
TORSDOF 7
REMARK  Name = ../refined-set-2016/3vje/3vje_pocket.pdb
REMARK  287 active torsions:
REMARK  status: ('A' for Active; 'I' for Inactive)
REMARK    1  A    between atoms: _1  and  _3
REMARK    2  A    between atoms: _3  and  _4
REMARK    3  A    between atoms: _3  and  _6
REMARK    4  A    between atoms: _6  and  _7
REMARK    5  A    between atoms: _10  and  _12
REMARK    6  A    between atoms: _12  and  _13
REMARK    7  A    between atoms: _12  and  _15
REMARK    8  A    between atoms: _15  and  _16
REMARK    9  A    between atoms: _16  and  _17
REMARK   10  A    between atoms: _19  and  _21
REMARK   11  A    between atoms: _21  and  _22
REMARK   12  A    between atoms: _21  and  _24
REMARK   13  A    between atoms: _24  and  _25
REMARK   14  A    between atoms: _25  and  _26
REMARK   15  A    between atoms: _26  and  _27
REMARK   16  A    between atoms: _27  and  _28
REMARK   17  A    between atoms: _32  and  _34
REMARK   18  A    between atoms: _34  and  _35
REMARK   19  A    between atoms: _34  and  _37
REMARK   20  A    between atoms: _37  and  _38
REMARK   21  A    between atoms: _43  and  _45
REMARK   22  A    between atoms: _45  and  _46
REMARK   23  A    between atoms: _45  and  _48
REMARK   24  A    between atoms: _48  and  _49
REMARK   25  A    between atoms: _51  and  _53
REMARK   26  A    between atoms: _53  and  _54
REMARK   27  A    between atoms: _53  and  _56
REMARK   28  A    between atoms: _56  and  _57
REMARK   29  A    between atoms: _57  and  _58
REMARK   30  A    between atoms: _58  and  _59
REMARK   31  A    between atoms: _59  and  _60
REMARK   32  A    between atoms: _64  and  _66
REMARK   33  A    between atoms: _66  and  _67
REMARK   34  A    between atoms: _66  and  _69
REMARK   35  A    between atoms: _69  and  _70
REMARK   36  A    between atoms: _72  and  _74
REMARK   37  A    between atoms: _74  and  _75
REMARK   38  A    between atoms: _74  and  _77
REMARK   39  A    between atoms: _77  and  _78
REMARK   40  A    between atoms: _84  and  _86
REMARK   41  A    between atoms: _86  and  _87
REMARK   42  A    between atoms: _86  and  _89
REMARK   43  A    between atoms: _89  and  _90
REMARK   44  A    between atoms: _92  and  _94
REMARK   45  A    between atoms: _94  and  _95
REMARK   46  A    between atoms: _94  and  _97
REMARK   47  A    between atoms: _97  and  _98
REMARK   48  A    between atoms: _103  and  _104
REMARK   49  A    between atoms: _106  and  _108
REMARK   50  A    between atoms: _108  and  _109
REMARK   51  A    between atoms: _112  and  _114
REMARK   52  A    between atoms: _114  and  _115
REMARK   53  A    between atoms: _114  and  _117
REMARK   54  A    between atoms: _117  and  _118
REMARK   55  A    between atoms: _124  and  _126
REMARK   56  A    between atoms: _126  and  _127
REMARK   57  A    between atoms: _126  and  _129
REMARK   58  A    between atoms: _129  and  _130
REMARK   59  A    between atoms: _133  and  _135
REMARK   60  A    between atoms: _135  and  _136
REMARK   61  A    between atoms: _135  and  _138
REMARK   62  A    between atoms: _138  and  _139
REMARK   63  A    between atoms: _142  and  _144
REMARK   64  A    between atoms: _144  and  _145
REMARK   65  A    between atoms: _148  and  _150
REMARK   66  A    between atoms: _150  and  _151
REMARK   67  A    between atoms: _150  and  _153
REMARK   68  A    between atoms: _156  and  _158
REMARK   69  A    between atoms: _158  and  _159
REMARK   70  A    between atoms: _158  and  _161
REMARK   71  A    between atoms: _161  and  _162
REMARK   72  A    between atoms: _172  and  _174
REMARK   73  A    between atoms: _174  and  _175
REMARK   74  A    between atoms: _178  and  _180
REMARK   75  A    between atoms: _180  and  _181
REMARK   76  A    between atoms: _180  and  _183
REMARK   77  A    between atoms: _183  and  _184
REMARK   78  A    between atoms: _187  and  _189
REMARK   79  A    between atoms: _189  and  _190
REMARK   80  A    between atoms: _189  and  _192
REMARK   81  A    between atoms: _192  and  _193
REMARK   82  A    between atoms: _198  and  _199
REMARK   83  A    between atoms: _201  and  _203
REMARK   84  A    between atoms: _203  and  _204
REMARK   85  A    between atoms: _207  and  _209
REMARK   86  A    between atoms: _209  and  _210
REMARK   87  A    between atoms: _209  and  _212
REMARK   88  A    between atoms: _215  and  _217
REMARK   89  A    between atoms: _217  and  _218
REMARK   90  A    between atoms: _217  and  _220
REMARK   91  A    between atoms: _222  and  _224
REMARK   92  A    between atoms: _224  and  _225
REMARK   93  A    between atoms: _224  and  _227
REMARK   94  A    between atoms: _227  and  _228
REMARK   95  A    between atoms: _228  and  _229
REMARK   96  A    between atoms: _229  and  _230
REMARK   97  A    between atoms: _239  and  _241
REMARK   98  A    between atoms: _241  and  _242
REMARK   99  A    between atoms: _241  and  _244
REMARK  100  A    between atoms: _244  and  _245
REMARK  101  A    between atoms: _245  and  _246
REMARK  102  A    between atoms: _246  and  _247
REMARK  103  A    between atoms: _247  and  _248
REMARK  104  A    between atoms: _252  and  _254
REMARK  105  A    between atoms: _254  and  _255
REMARK  106  A    between atoms: _254  and  _257
REMARK  107  A    between atoms: _257  and  _258
REMARK  108  A    between atoms: _261  and  _263
REMARK  109  A    between atoms: _263  and  _264
REMARK  110  A    between atoms: _263  and  _266
REMARK  111  A    between atoms: _266  and  _267
REMARK  112  A    between atoms: _270  and  _272
REMARK  113  A    between atoms: _272  and  _273
REMARK  114  A    between atoms: _272  and  _275
REMARK  115  A    between atoms: _275  and  _276
REMARK  116  A    between atoms: _279  and  _281
REMARK  117  A    between atoms: _281  and  _282
REMARK  118  A    between atoms: _281  and  _284
REMARK  119  A    between atoms: _284  and  _285
REMARK  120  A    between atoms: _291  and  _293
REMARK  121  A    between atoms: _293  and  _294
REMARK  122  A    between atoms: _293  and  _296
REMARK  123  A    between atoms: _296  and  _297
REMARK  124  A    between atoms: _300  and  _302
REMARK  125  A    between atoms: _302  and  _303
REMARK  126  A    between atoms: _302  and  _305
REMARK  127  A    between atoms: _305  and  _306
REMARK  128  A    between atoms: _309  and  _311
REMARK  129  A    between atoms: _311  and  _312
REMARK  130  A    between atoms: _311  and  _314
REMARK  131  A    between atoms: _314  and  _315
REMARK  132  A    between atoms: _318  and  _320
REMARK  133  A    between atoms: _320  and  _321
REMARK  134  A    between atoms: _320  and  _323
REMARK  135  A    between atoms: _326  and  _328
REMARK  136  A    between atoms: _328  and  _329
REMARK  137  A    between atoms: _328  and  _331
REMARK  138  A    between atoms: _331  and  _332
REMARK  139  A    between atoms: _337  and  _338
REMARK  140  A    between atoms: _340  and  _342
REMARK  141  A    between atoms: _342  and  _343
REMARK  142  A    between atoms: _345  and  _347
REMARK  143  A    between atoms: _347  and  _348
REMARK  144  A    between atoms: _347  and  _350
REMARK  145  A    between atoms: _353  and  _355
REMARK  146  A    between atoms: _355  and  _356
REMARK  147  A    between atoms: _359  and  _361
REMARK  148  A    between atoms: _361  and  _362
REMARK  149  A    between atoms: _361  and  _364
REMARK  150  A    between atoms: _364  and  _365
REMARK  151  A    between atoms: _368  and  _370
REMARK  152  A    between atoms: _370  and  _371
REMARK  153  A    between atoms: _370  and  _373
REMARK  154  A    between atoms: _376  and  _378
REMARK  155  A    between atoms: _378  and  _379
REMARK  156  A    between atoms: _381  and  _383
REMARK  157  A    between atoms: _383  and  _384
REMARK  158  A    between atoms: _383  and  _386
REMARK  159  A    between atoms: _389  and  _391
REMARK  160  A    between atoms: _391  and  _392
REMARK  161  A    between atoms: _391  and  _394
REMARK  162  A    between atoms: _394  and  _395
REMARK  163  A    between atoms: _398  and  _400
REMARK  164  A    between atoms: _400  and  _401
REMARK  165  A    between atoms: _400  and  _403
REMARK  166  A    between atoms: _403  and  _404
REMARK  167  A    between atoms: _407  and  _409
REMARK  168  A    between atoms: _409  and  _410
REMARK  169  A    between atoms: _409  and  _412
REMARK  170  A    between atoms: _412  and  _413
REMARK  171  A    between atoms: _416  and  _418
REMARK  172  A    between atoms: _418  and  _419
REMARK  173  A    between atoms: _418  and  _421
REMARK  174  A    between atoms: _421  and  _422
REMARK  175  A    between atoms: _424  and  _426
REMARK  176  A    between atoms: _426  and  _427
REMARK  177  A    between atoms: _426  and  _429
REMARK  178  A    between atoms: _429  and  _430
REMARK  179  A    between atoms: _433  and  _435
REMARK  180  A    between atoms: _435  and  _436
REMARK  181  A    between atoms: _435  and  _438
REMARK  182  A    between atoms: _438  and  _439
REMARK  183  A    between atoms: _439  and  _440
REMARK  184  A    between atoms: _445  and  _447
REMARK  185  A    between atoms: _447  and  _448
REMARK  186  A    between atoms: _447  and  _450
REMARK  187  A    between atoms: _450  and  _451
REMARK  188  A    between atoms: _454  and  _456
REMARK  189  A    between atoms: _456  and  _457
REMARK  190  A    between atoms: _456  and  _459
REMARK  191  A    between atoms: _459  and  _460
REMARK  192  A    between atoms: _465  and  _467
REMARK  193  A    between atoms: _467  and  _468
REMARK  194  A    between atoms: _467  and  _470
REMARK  195  A    between atoms: _470  and  _471
REMARK  196  A    between atoms: _474  and  _476
REMARK  197  A    between atoms: _476  and  _477
REMARK  198  A    between atoms: _476  and  _479
REMARK  199  A    between atoms: _479  and  _480
REMARK  200  A    between atoms: _480  and  _481
REMARK  201  A    between atoms: _481  and  _482
REMARK  202  A    between atoms: _491  and  _493
REMARK  203  A    between atoms: _493  and  _494
REMARK  204  A    between atoms: _493  and  _496
REMARK  205  A    between atoms: _496  and  _497
REMARK  206  A    between atoms: _500  and  _502
REMARK  207  A    between atoms: _502  and  _503
REMARK  208  A    between atoms: _502  and  _505
REMARK  209  A    between atoms: _505  and  _506
REMARK  210  A    between atoms: _506  and  _507
REMARK  211  A    between atoms: _510  and  _512
REMARK  212  A    between atoms: _512  and  _513
REMARK  213  A    between atoms: _512  and  _515
REMARK  214  A    between atoms: _515  and  _516
REMARK  215  A    between atoms: _522  and  _524
REMARK  216  A    between atoms: _524  and  _525
REMARK  217  A    between atoms: _524  and  _527
REMARK  218  A    between atoms: _527  and  _528
REMARK  219  A    between atoms: _531  and  _533
REMARK  220  A    between atoms: _533  and  _534
REMARK  221  A    between atoms: _533  and  _536
REMARK  222  A    between atoms: _536  and  _537
REMARK  223  A    between atoms: _540  and  _542
REMARK  224  A    between atoms: _542  and  _543
REMARK  225  A    between atoms: _542  and  _545
REMARK  226  A    between atoms: _545  and  _546
REMARK  227  A    between atoms: _546  and  _547
REMARK  228  A    between atoms: _550  and  _552
REMARK  229  A    between atoms: _552  and  _553
REMARK  230  A    between atoms: _552  and  _555
REMARK  231  A    between atoms: _555  and  _556
REMARK  232  A    between atoms: _559  and  _561
REMARK  233  A    between atoms: _561  and  _562
REMARK  234  A    between atoms: _565  and  _567
REMARK  235  A    between atoms: _567  and  _568
REMARK  236  A    between atoms: _571  and  _573
REMARK  237  A    between atoms: _573  and  _574
REMARK  238  A    between atoms: _573  and  _576
REMARK  239  A    between atoms: _576  and  _577
REMARK  240  A    between atoms: _577  and  _578
REMARK  241  A    between atoms: _578  and  _579
REMARK  242  A    between atoms: _588  and  _590
REMARK  243  A    between atoms: _590  and  _591
REMARK  244  A    between atoms: _590  and  _593
REMARK  245  A    between atoms: _593  and  _594
REMARK  246  A    between atoms: _597  and  _599
REMARK  247  A    between atoms: _599  and  _600
REMARK  248  A    between atoms: _603  and  _605
REMARK  249  A    between atoms: _605  and  _606
REMARK  250  A    between atoms: _605  and  _608
REMARK  251  A    between atoms: _608  and  _609
REMARK  252  A    between atoms: _612  and  _614
REMARK  253  A    between atoms: _614  and  _615
REMARK  254  A    between atoms: _614  and  _617
REMARK  255  A    between atoms: _617  and  _618
REMARK  256  A    between atoms: _618  and  _619
REMARK  257  A    between atoms: _622  and  _624
REMARK  258  A    between atoms: _624  and  _625
REMARK  259  A    between atoms: _624  and  _627
REMARK  260  A    between atoms: _627  and  _628
REMARK  261  A    between atoms: _631  and  _633
REMARK  262  A    between atoms: _633  and  _634
REMARK  263  A    between atoms: _633  and  _636
REMARK  264  A    between atoms: _636  and  _637
REMARK  265  A    between atoms: _640  and  _642
REMARK  266  A    between atoms: _642  and  _643
REMARK  267  A    between atoms: _642  and  _645
REMARK  268  A    between atoms: _645  and  _646
REMARK  269  A    between atoms: _646  and  _647
REMARK  270  A    between atoms: _647  and  _648
REMARK  271  A    between atoms: _657  and  _659
REMARK  272  A    between atoms: _659  and  _660
REMARK  273  A    between atoms: _659  and  _662
REMARK  274  A    between atoms: _665  and  _667
REMARK  275  A    between atoms: _667  and  _668
REMARK  276  A    between atoms: _667  and  _670
REMARK  277  A    between atoms: _670  and  _671
REMARK  278  A    between atoms: _677  and  _679
REMARK  279  A    between atoms: _679  and  _680
REMARK  280  A    between atoms: _679  and  _682
REMARK  281  A    between atoms: _685  and  _687
REMARK  282  A    between atoms: _687  and  _688
REMARK  283  A    between atoms: _687  and  _690
REMARK  284  A    between atoms: _690  and  _691
REMARK  285  A    between atoms: _691  and  _692
REMARK  286  A    between atoms: _692  and  _693
REMARK  287  A    between atoms: _693  and  _694
REMARK                            x       y       z     vdW  Elec       q    Type
REMARK                         _______ _______ _______ _____ _____    ______ ____
ROOT
ATOM      1  C   THR A   1      30.112 -17.961   3.845  0.00  0.00    +0.241 C 
ATOM      2  O   THR A   1      30.565 -18.933   4.450  0.00  0.00    -0.274 OA
ATOM      3  N   VAL A   2      29.257 -17.087   4.382  0.00  0.00    -0.297 N 
ATOM      4  H   VAL A   2      28.919 -16.292   3.803  0.00  0.00    +0.150 HD
ENDROOT
BRANCH   1   5
ATOM      5  CA  THR A   1      30.506 -17.723   2.392  0.00  0.00    +0.172 C 
BRANCH   5   6
ATOM      6  N   THR A   1      29.328 -17.342   1.616  0.00  0.00    -0.236 NA
ATOM      7  H   THR A   1      29.330 -16.413   1.148  0.00  0.00    +0.142 HD
ENDBRANCH   5   6
BRANCH   5   8
ATOM      8  CB  THR A   1      31.576 -16.605   2.377  0.00  0.00    +0.135 C 
ATOM      9  CG2 THR A   1      32.245 -16.535   1.027  0.00  0.00    +0.034 C 
BRANCH   8  10
ATOM     10  OG1 THR A   1      30.965 -15.333   2.668  0.00  0.00    -0.383 OA
ATOM     11  HG1 THR A   1      31.657 -14.625   2.656  0.00  0.00    +0.210 HD
ENDBRANCH   8  10
ENDBRANCH   5   8
ENDBRANCH   1   5
BRANCH   3  12
ATOM     12  CA  VAL A   2      28.782 -17.214   5.760  0.00  0.00    +0.148 C 
BRANCH  12  13
ATOM     13  C   VAL A   2      27.943 -18.485   5.920  0.00  0.00    +0.241 C 
ATOM     14  O   VAL A   2      28.090 -19.216   6.901  0.00  0.00    -0.273 OA
ATOM     15  N   GLY A   3      27.049 -18.753   4.975  0.00  0.00    -0.296 N 
ATOM     16  H   GLY A   3      26.879 -18.066   4.213  0.00  0.00    +0.150 HD
BRANCH  15  17
ATOM     17  CA  GLY A   3      26.303 -20.011   5.001  0.00  0.00    +0.163 C 
BRANCH  17  18
ATOM     18  C   GLY A   3      27.235 -21.218   5.010  0.00  0.00    +0.229 C 
ATOM     19  O   GLY A   3      27.005 -22.164   5.753  0.00  0.00    -0.286 OA
ENDBRANCH  17  18
ENDBRANCH  15  17
ENDBRANCH  12  13
BRANCH  12  20
ATOM     20  CB  VAL A   2      27.989 -15.942   6.183  0.00  0.00    +0.027 C 
ATOM     21  CG2 VAL A   2      27.437 -16.098   7.571  0.00  0.00    +0.002 C 
ATOM     22  CG1 VAL A   2      28.918 -14.701   6.091  0.00  0.00    +0.002 C 
ENDBRANCH  12  20
ENDBRANCH   3  12
TORSDOF 9
REMARK  Name = ../refined-set-2016/3vje/3vje_pocket.pdb
REMARK  287 active torsions:
REMARK  status: ('A' for Active; 'I' for Inactive)
REMARK    1  A    between atoms: _1  and  _3
REMARK    2  A    between atoms: _3  and  _4
REMARK    3  A    between atoms: _3  and  _6
REMARK    4  A    between atoms: _6  and  _7
REMARK    5  A    between atoms: _10  and  _12
REMARK    6  A    between atoms: _12  and  _13
REMARK    7  A    between atoms: _12  and  _15
REMARK    8  A    between atoms: _15  and  _16
REMARK    9  A    between atoms: _16  and  _17
REMARK   10  A    between atoms: _19  and  _21
REMARK   11  A    between atoms: _21  and  _22
REMARK   12  A    between atoms: _21  and  _24
REMARK   13  A    between atoms: _24  and  _25
REMARK   14  A    between atoms: _25  and  _26
REMARK   15  A    between atoms: _26  and  _27
REMARK   16  A    between atoms: _27  and  _28
REMARK   17  A    between atoms: _32  and  _34
REMARK   18  A    between atoms: _34  and  _35
REMARK   19  A    between atoms: _34  and  _37
REMARK   20  A    between atoms: _37  and  _38
REMARK   21  A    between atoms: _43  and  _45
REMARK   22  A    between atoms: _45  and  _46
REMARK   23  A    between atoms: _45  and  _48
REMARK   24  A    between atoms: _48  and  _49
REMARK   25  A    between atoms: _51  and  _53
REMARK   26  A    between atoms: _53  and  _54
REMARK   27  A    between atoms: _53  and  _56
REMARK   28  A    between atoms: _56  and  _57
REMARK   29  A    between atoms: _57  and  _58
REMARK   30  A    between atoms: _58  and  _59
REMARK   31  A    between atoms: _59  and  _60
REMARK   32  A    between atoms: _64  and  _66
REMARK   33  A    between atoms: _66  and  _67
REMARK   34  A    between atoms: _66  and  _69
REMARK   35  A    between atoms: _69  and  _70
REMARK   36  A    between atoms: _72  and  _74
REMARK   37  A    between atoms: _74  and  _75
REMARK   38  A    between atoms: _74  and  _77
REMARK   39  A    between atoms: _77  and  _78
REMARK   40  A    between atoms: _84  and  _86
REMARK   41  A    between atoms: _86  and  _87
REMARK   42  A    between atoms: _86  and  _89
REMARK   43  A    between atoms: _89  and  _90
REMARK   44  A    between atoms: _92  and  _94
REMARK   45  A    between atoms: _94  and  _95
REMARK   46  A    between atoms: _94  and  _97
REMARK   47  A    between atoms: _97  and  _98
REMARK   48  A    between atoms: _103  and  _104
REMARK   49  A    between atoms: _106  and  _108
REMARK   50  A    between atoms: _108  and  _109
REMARK   51  A    between atoms: _112  and  _114
REMARK   52  A    between atoms: _114  and  _115
REMARK   53  A    between atoms: _114  and  _117
REMARK   54  A    between atoms: _117  and  _118
REMARK   55  A    between atoms: _124  and  _126
REMARK   56  A    between atoms: _126  and  _127
REMARK   57  A    between atoms: _126  and  _129
REMARK   58  A    between atoms: _129  and  _130
REMARK   59  A    between atoms: _133  and  _135
REMARK   60  A    between atoms: _135  and  _136
REMARK   61  A    between atoms: _135  and  _138
REMARK   62  A    between atoms: _138  and  _139
REMARK   63  A    between atoms: _142  and  _144
REMARK   64  A    between atoms: _144  and  _145
REMARK   65  A    between atoms: _148  and  _150
REMARK   66  A    between atoms: _150  and  _151
REMARK   67  A    between atoms: _150  and  _153
REMARK   68  A    between atoms: _156  and  _158
REMARK   69  A    between atoms: _158  and  _159
REMARK   70  A    between atoms: _158  and  _161
REMARK   71  A    between atoms: _161  and  _162
REMARK   72  A    between atoms: _172  and  _174
REMARK   73  A    between atoms: _174  and  _175
REMARK   74  A    between atoms: _178  and  _180
REMARK   75  A    between atoms: _180  and  _181
REMARK   76  A    between atoms: _180  and  _183
REMARK   77  A    between atoms: _183  and  _184
REMARK   78  A    between atoms: _187  and  _189
REMARK   79  A    between atoms: _189  and  _190
REMARK   80  A    between atoms: _189  and  _192
REMARK   81  A    between atoms: _192  and  _193
REMARK   82  A    between atoms: _198  and  _199
REMARK   83  A    between atoms: _201  and  _203
REMARK   84  A    between atoms: _203  and  _204
REMARK   85  A    between atoms: _207  and  _209
REMARK   86  A    between atoms: _209  and  _210
REMARK   87  A    between atoms: _209  and  _212
REMARK   88  A    between atoms: _215  and  _217
REMARK   89  A    between atoms: _217  and  _218
REMARK   90  A    between atoms: _217  and  _220
REMARK   91  A    between atoms: _222  and  _224
REMARK   92  A    between atoms: _224  and  _225
REMARK   93  A    between atoms: _224  and  _227
REMARK   94  A    between atoms: _227  and  _228
REMARK   95  A    between atoms: _228  and  _229
REMARK   96  A    between atoms: _229  and  _230
REMARK   97  A    between atoms: _239  and  _241
REMARK   98  A    between atoms: _241  and  _242
REMARK   99  A    between atoms: _241  and  _244
REMARK  100  A    between atoms: _244  and  _245
REMARK  101  A    between atoms: _245  and  _246
REMARK  102  A    between atoms: _246  and  _247
REMARK  103  A    between atoms: _247  and  _248
REMARK  104  A    between atoms: _252  and  _254
REMARK  105  A    between atoms: _254  and  _255
REMARK  106  A    between atoms: _254  and  _257
REMARK  107  A    between atoms: _257  and  _258
REMARK  108  A    between atoms: _261  and  _263
REMARK  109  A    between atoms: _263  and  _264
REMARK  110  A    between atoms: _263  and  _266
REMARK  111  A    between atoms: _266  and  _267
REMARK  112  A    between atoms: _270  and  _272
REMARK  113  A    between atoms: _272  and  _273
REMARK  114  A    between atoms: _272  and  _275
REMARK  115  A    between atoms: _275  and  _276
REMARK  116  A    between atoms: _279  and  _281
REMARK  117  A    between atoms: _281  and  _282
REMARK  118  A    between atoms: _281  and  _284
REMARK  119  A    between atoms: _284  and  _285
REMARK  120  A    between atoms: _291  and  _293
REMARK  121  A    between atoms: _293  and  _294
REMARK  122  A    between atoms: _293  and  _296
REMARK  123  A    between atoms: _296  and  _297
REMARK  124  A    between atoms: _300  and  _302
REMARK  125  A    between atoms: _302  and  _303
REMARK  126  A    between atoms: _302  and  _305
REMARK  127  A    between atoms: _305  and  _306
REMARK  128  A    between atoms: _309  and  _311
REMARK  129  A    between atoms: _311  and  _312
REMARK  130  A    between atoms: _311  and  _314
REMARK  131  A    between atoms: _314  and  _315
REMARK  132  A    between atoms: _318  and  _320
REMARK  133  A    between atoms: _320  and  _321
REMARK  134  A    between atoms: _320  and  _323
REMARK  135  A    between atoms: _326  and  _328
REMARK  136  A    between atoms: _328  and  _329
REMARK  137  A    between atoms: _328  and  _331
REMARK  138  A    between atoms: _331  and  _332
REMARK  139  A    between atoms: _337  and  _338
REMARK  140  A    between atoms: _340  and  _342
REMARK  141  A    between atoms: _342  and  _343
REMARK  142  A    between atoms: _345  and  _347
REMARK  143  A    between atoms: _347  and  _348
REMARK  144  A    between atoms: _347  and  _350
REMARK  145  A    between atoms: _353  and  _355
REMARK  146  A    between atoms: _355  and  _356
REMARK  147  A    between atoms: _359  and  _361
REMARK  148  A    between atoms: _361  and  _362
REMARK  149  A    between atoms: _361  and  _364
REMARK  150  A    between atoms: _364  and  _365
REMARK  151  A    between atoms: _368  and  _370
REMARK  152  A    between atoms: _370  and  _371
REMARK  153  A    between atoms: _370  and  _373
REMARK  154  A    between atoms: _376  and  _378
REMARK  155  A    between atoms: _378  and  _379
REMARK  156  A    between atoms: _381  and  _383
REMARK  157  A    between atoms: _383  and  _384
REMARK  158  A    between atoms: _383  and  _386
REMARK  159  A    between atoms: _389  and  _391
REMARK  160  A    between atoms: _391  and  _392
REMARK  161  A    between atoms: _391  and  _394
REMARK  162  A    between atoms: _394  and  _395
REMARK  163  A    between atoms: _398  and  _400
REMARK  164  A    between atoms: _400  and  _401
REMARK  165  A    between atoms: _400  and  _403
REMARK  166  A    between atoms: _403  and  _404
REMARK  167  A    between atoms: _407  and  _409
REMARK  168  A    between atoms: _409  and  _410
REMARK  169  A    between atoms: _409  and  _412
REMARK  170  A    between atoms: _412  and  _413
REMARK  171  A    between atoms: _416  and  _418
REMARK  172  A    between atoms: _418  and  _419
REMARK  173  A    between atoms: _418  and  _421
REMARK  174  A    between atoms: _421  and  _422
REMARK  175  A    between atoms: _424  and  _426
REMARK  176  A    between atoms: _426  and  _427
REMARK  177  A    between atoms: _426  and  _429
REMARK  178  A    between atoms: _429  and  _430
REMARK  179  A    between atoms: _433  and  _435
REMARK  180  A    between atoms: _435  and  _436
REMARK  181  A    between atoms: _435  and  _438
REMARK  182  A    between atoms: _438  and  _439
REMARK  183  A    between atoms: _439  and  _440
REMARK  184  A    between atoms: _445  and  _447
REMARK  185  A    between atoms: _447  and  _448
REMARK  186  A    between atoms: _447  and  _450
REMARK  187  A    between atoms: _450  and  _451
REMARK  188  A    between atoms: _454  and  _456
REMARK  189  A    between atoms: _456  and  _457
REMARK  190  A    between atoms: _456  and  _459
REMARK  191  A    between atoms: _459  and  _460
REMARK  192  A    between atoms: _465  and  _467
REMARK  193  A    between atoms: _467  and  _468
REMARK  194  A    between atoms: _467  and  _470
REMARK  195  A    between atoms: _470  and  _471
REMARK  196  A    between atoms: _474  and  _476
REMARK  197  A    between atoms: _476  and  _477
REMARK  198  A    between atoms: _476  and  _479
REMARK  199  A    between atoms: _479  and  _480
REMARK  200  A    between atoms: _480  and  _481
REMARK  201  A    between atoms: _481  and  _482
REMARK  202  A    between atoms: _491  and  _493
REMARK  203  A    between atoms: _493  and  _494
REMARK  204  A    between atoms: _493  and  _496
REMARK  205  A    between atoms: _496  and  _497
REMARK  206  A    between atoms: _500  and  _502
REMARK  207  A    between atoms: _502  and  _503
REMARK  208  A    between atoms: _502  and  _505
REMARK  209  A    between atoms: _505  and  _506
REMARK  210  A    between atoms: _506  and  _507
REMARK  211  A    between atoms: _510  and  _512
REMARK  212  A    between atoms: _512  and  _513
REMARK  213  A    between atoms: _512  and  _515
REMARK  214  A    between atoms: _515  and  _516
REMARK  215  A    between atoms: _522  and  _524
REMARK  216  A    between atoms: _524  and  _525
REMARK  217  A    between atoms: _524  and  _527
REMARK  218  A    between atoms: _527  and  _528
REMARK  219  A    between atoms: _531  and  _533
REMARK  220  A    between atoms: _533  and  _534
REMARK  221  A    between atoms: _533  and  _536
REMARK  222  A    between atoms: _536  and  _537
REMARK  223  A    between atoms: _540  and  _542
REMARK  224  A    between atoms: _542  and  _543
REMARK  225  A    between atoms: _542  and  _545
REMARK  226  A    between atoms: _545  and  _546
REMARK  227  A    between atoms: _546  and  _547
REMARK  228  A    between atoms: _550  and  _552
REMARK  229  A    between atoms: _552  and  _553
REMARK  230  A    between atoms: _552  and  _555
REMARK  231  A    between atoms: _555  and  _556
REMARK  232  A    between atoms: _559  and  _561
REMARK  233  A    between atoms: _561  and  _562
REMARK  234  A    between atoms: _565  and  _567
REMARK  235  A    between atoms: _567  and  _568
REMARK  236  A    between atoms: _571  and  _573
REMARK  237  A    between atoms: _573  and  _574
REMARK  238  A    between atoms: _573  and  _576
REMARK  239  A    between atoms: _576  and  _577
REMARK  240  A    between atoms: _577  and  _578
REMARK  241  A    between atoms: _578  and  _579
REMARK  242  A    between atoms: _588  and  _590
REMARK  243  A    between atoms: _590  and  _591
REMARK  244  A    between atoms: _590  and  _593
REMARK  245  A    between atoms: _593  and  _594
REMARK  246  A    between atoms: _597  and  _599
REMARK  247  A    between atoms: _599  and  _600
REMARK  248  A    between atoms: _603  and  _605
REMARK  249  A    between atoms: _605  and  _606
REMARK  250  A    between atoms: _605  and  _608
REMARK  251  A    between atoms: _608  and  _609
REMARK  252  A    between atoms: _612  and  _614
REMARK  253  A    between atoms: _614  and  _615
REMARK  254  A    between atoms: _614  and  _617
REMARK  255  A    between atoms: _617  and  _618
REMARK  256  A    between atoms: _618  and  _619
REMARK  257  A    between atoms: _622  and  _624
REMARK  258  A    between atoms: _624  and  _625
REMARK  259  A    between atoms: _624  and  _627
REMARK  260  A    between atoms: _627  and  _628
REMARK  261  A    between atoms: _631  and  _633
REMARK  262  A    between atoms: _633  and  _634
REMARK  263  A    between atoms: _633  and  _636
REMARK  264  A    between atoms: _636  and  _637
REMARK  265  A    between atoms: _640  and  _642
REMARK  266  A    between atoms: _642  and  _643
REMARK  267  A    between atoms: _642  and  _645
REMARK  268  A    between atoms: _645  and  _646
REMARK  269  A    between atoms: _646  and  _647
REMARK  270  A    between atoms: _647  and  _648
REMARK  271  A    between atoms: _657  and  _659
REMARK  272  A    between atoms: _659  and  _660
REMARK  273  A    between atoms: _659  and  _662
REMARK  274  A    between atoms: _665  and  _667
REMARK  275  A    between atoms: _667  and  _668
REMARK  276  A    between atoms: _667  and  _670
REMARK  277  A    between atoms: _670  and  _671
REMARK  278  A    between atoms: _677  and  _679
REMARK  279  A    between atoms: _679  and  _680
REMARK  280  A    between atoms: _679  and  _682
REMARK  281  A    between atoms: _685  and  _687
REMARK  282  A    between atoms: _687  and  _688
REMARK  283  A    between atoms: _687  and  _690
REMARK  284  A    between atoms: _690  and  _691
REMARK  285  A    between atoms: _691  and  _692
REMARK  286  A    between atoms: _692  and  _693
REMARK  287  A    between atoms: _693  and  _694
REMARK                            x       y       z     vdW  Elec       q    Type
REMARK                         _______ _______ _______ _____ _____    ______ ____
ROOT
ATOM      1  C   VAL A   1      30.055 -21.918   8.562  0.00  0.00    +0.238 C 
ATOM      2  O   VAL A   1      30.465 -22.729   9.396  0.00  0.00    -0.274 OA
ATOM      3  N   LEU A   2      28.776 -21.546   8.477  0.00  0.00    -0.298 N 
ATOM      4  H   LEU A   2      28.490 -20.901   7.713  0.00  0.00    +0.150 HD
ENDROOT
BRANCH   1   5
ATOM      5  CA  VAL A   1      31.029 -21.289   7.559  0.00  0.00    +0.145 C 
BRANCH   5   6
ATOM      6  CB  VAL A   1      31.367 -19.848   8.035  0.00  0.00    +0.025 C 
ATOM      7  CG2 VAL A   1      31.934 -19.867   9.441  0.00  0.00    +0.002 C 
ATOM      8  CG1 VAL A   1      32.374 -19.215   7.102  0.00  0.00    +0.002 C 
ENDBRANCH   5   6
BRANCH   5   9
ATOM      9  N   VAL A   1      30.490 -21.300   6.200  0.00  0.00    -0.238 NA
ATOM     10  H   VAL A   1      30.471 -20.405   5.670  0.00  0.00    +0.142 HD
ENDBRANCH   5   9
ENDBRANCH   1   5
BRANCH   3  11
ATOM     11  CA  LEU A   2      27.760 -22.017   9.425  0.00  0.00    +0.137 C 
BRANCH  11  12
ATOM     12  C   LEU A   2      27.316 -23.459   9.215  0.00  0.00    +0.227 C 
ATOM     13  O   LEU A   2      26.726 -24.032  10.117  0.00  0.00    -0.286 OA
ENDBRANCH  11  12
BRANCH  11  14
ATOM     14  CB  LEU A   2      26.521 -21.114   9.436  0.00  0.00    +0.028 C 
BRANCH  14  15
ATOM     15  CG  LEU A   2      26.685 -19.680   9.946  0.00  0.00    +0.002 C 
ATOM     16  CD2 LEU A   2      26.842 -19.638  11.492  0.00  0.00    +0.000 C 
ATOM     17  CD1 LEU A   2      25.477 -18.878   9.493  0.00  0.00    +0.000 C 
ENDBRANCH  14  15
ENDBRANCH  11  14
ENDBRANCH   3  11
TORSDOF 7
REMARK  Name = ../refined-set-2016/3vje/3vje_pocket.pdb
REMARK  287 active torsions:
REMARK  status: ('A' for Active; 'I' for Inactive)
REMARK    1  A    between atoms: _1  and  _3
REMARK    2  A    between atoms: _3  and  _4
REMARK    3  A    between atoms: _3  and  _6
REMARK    4  A    between atoms: _6  and  _7
REMARK    5  A    between atoms: _10  and  _12
REMARK    6  A    between atoms: _12  and  _13
REMARK    7  A    between atoms: _12  and  _15
REMARK    8  A    between atoms: _15  and  _16
REMARK    9  A    between atoms: _16  and  _17
REMARK   10  A    between atoms: _19  and  _21
REMARK   11  A    between atoms: _21  and  _22
REMARK   12  A    between atoms: _21  and  _24
REMARK   13  A    between atoms: _24  and  _25
REMARK   14  A    between atoms: _25  and  _26
REMARK   15  A    between atoms: _26  and  _27
REMARK   16  A    between atoms: _27  and  _28
REMARK   17  A    between atoms: _32  and  _34
REMARK   18  A    between atoms: _34  and  _35
REMARK   19  A    between atoms: _34  and  _37
REMARK   20  A    between atoms: _37  and  _38
REMARK   21  A    between atoms: _43  and  _45
REMARK   22  A    between atoms: _45  and  _46
REMARK   23  A    between atoms: _45  and  _48
REMARK   24  A    between atoms: _48  and  _49
REMARK   25  A    between atoms: _51  and  _53
REMARK   26  A    between atoms: _53  and  _54
REMARK   27  A    between atoms: _53  and  _56
REMARK   28  A    between atoms: _56  and  _57
REMARK   29  A    between atoms: _57  and  _58
REMARK   30  A    between atoms: _58  and  _59
REMARK   31  A    between atoms: _59  and  _60
REMARK   32  A    between atoms: _64  and  _66
REMARK   33  A    between atoms: _66  and  _67
REMARK   34  A    between atoms: _66  and  _69
REMARK   35  A    between atoms: _69  and  _70
REMARK   36  A    between atoms: _72  and  _74
REMARK   37  A    between atoms: _74  and  _75
REMARK   38  A    between atoms: _74  and  _77
REMARK   39  A    between atoms: _77  and  _78
REMARK   40  A    between atoms: _84  and  _86
REMARK   41  A    between atoms: _86  and  _87
REMARK   42  A    between atoms: _86  and  _89
REMARK   43  A    between atoms: _89  and  _90
REMARK   44  A    between atoms: _92  and  _94
REMARK   45  A    between atoms: _94  and  _95
REMARK   46  A    between atoms: _94  and  _97
REMARK   47  A    between atoms: _97  and  _98
REMARK   48  A    between atoms: _103  and  _104
REMARK   49  A    between atoms: _106  and  _108
REMARK   50  A    between atoms: _108  and  _109
REMARK   51  A    between atoms: _112  and  _114
REMARK   52  A    between atoms: _114  and  _115
REMARK   53  A    between atoms: _114  and  _117
REMARK   54  A    between atoms: _117  and  _118
REMARK   55  A    between atoms: _124  and  _126
REMARK   56  A    between atoms: _126  and  _127
REMARK   57  A    between atoms: _126  and  _129
REMARK   58  A    between atoms: _129  and  _130
REMARK   59  A    between atoms: _133  and  _135
REMARK   60  A    between atoms: _135  and  _136
REMARK   61  A    between atoms: _135  and  _138
REMARK   62  A    between atoms: _138  and  _139
REMARK   63  A    between atoms: _142  and  _144
REMARK   64  A    between atoms: _144  and  _145
REMARK   65  A    between atoms: _148  and  _150
REMARK   66  A    between atoms: _150  and  _151
REMARK   67  A    between atoms: _150  and  _153
REMARK   68  A    between atoms: _156  and  _158
REMARK   69  A    between atoms: _158  and  _159
REMARK   70  A    between atoms: _158  and  _161
REMARK   71  A    between atoms: _161  and  _162
REMARK   72  A    between atoms: _172  and  _174
REMARK   73  A    between atoms: _174  and  _175
REMARK   74  A    between atoms: _178  and  _180
REMARK   75  A    between atoms: _180  and  _181
REMARK   76  A    between atoms: _180  and  _183
REMARK   77  A    between atoms: _183  and  _184
REMARK   78  A    between atoms: _187  and  _189
REMARK   79  A    between atoms: _189  and  _190
REMARK   80  A    between atoms: _189  and  _192
REMARK   81  A    between atoms: _192  and  _193
REMARK   82  A    between atoms: _198  and  _199
REMARK   83  A    between atoms: _201  and  _203
REMARK   84  A    between atoms: _203  and  _204
REMARK   85  A    between atoms: _207  and  _209
REMARK   86  A    between atoms: _209  and  _210
REMARK   87  A    between atoms: _209  and  _212
REMARK   88  A    between atoms: _215  and  _217
REMARK   89  A    between atoms: _217  and  _218
REMARK   90  A    between atoms: _217  and  _220
REMARK   91  A    between atoms: _222  and  _224
REMARK   92  A    between atoms: _224  and  _225
REMARK   93  A    between atoms: _224  and  _227
REMARK   94  A    between atoms: _227  and  _228
REMARK   95  A    between atoms: _228  and  _229
REMARK   96  A    between atoms: _229  and  _230
REMARK   97  A    between atoms: _239  and  _241
REMARK   98  A    between atoms: _241  and  _242
REMARK   99  A    between atoms: _241  and  _244
REMARK  100  A    between atoms: _244  and  _245
REMARK  101  A    between atoms: _245  and  _246
REMARK  102  A    between atoms: _246  and  _247
REMARK  103  A    between atoms: _247  and  _248
REMARK  104  A    between atoms: _252  and  _254
REMARK  105  A    between atoms: _254  and  _255
REMARK  106  A    between atoms: _254  and  _257
REMARK  107  A    between atoms: _257  and  _258
REMARK  108  A    between atoms: _261  and  _263
REMARK  109  A    between atoms: _263  and  _264
REMARK  110  A    between atoms: _263  and  _266
REMARK  111  A    between atoms: _266  and  _267
REMARK  112  A    between atoms: _270  and  _272
REMARK  113  A    between atoms: _272  and  _273
REMARK  114  A    between atoms: _272  and  _275
REMARK  115  A    between atoms: _275  and  _276
REMARK  116  A    between atoms: _279  and  _281
REMARK  117  A    between atoms: _281  and  _282
REMARK  118  A    between atoms: _281  and  _284
REMARK  119  A    between atoms: _284  and  _285
REMARK  120  A    between atoms: _291  and  _293
REMARK  121  A    between atoms: _293  and  _294
REMARK  122  A    between atoms: _293  and  _296
REMARK  123  A    between atoms: _296  and  _297
REMARK  124  A    between atoms: _300  and  _302
REMARK  125  A    between atoms: _302  and  _303
REMARK  126  A    between atoms: _302  and  _305
REMARK  127  A    between atoms: _305  and  _306
REMARK  128  A    between atoms: _309  and  _311
REMARK  129  A    between atoms: _311  and  _312
REMARK  130  A    between atoms: _311  and  _314
REMARK  131  A    between atoms: _314  and  _315
REMARK  132  A    between atoms: _318  and  _320
REMARK  133  A    between atoms: _320  and  _321
REMARK  134  A    between atoms: _320  and  _323
REMARK  135  A    between atoms: _326  and  _328
REMARK  136  A    between atoms: _328  and  _329
REMARK  137  A    between atoms: _328  and  _331
REMARK  138  A    between atoms: _331  and  _332
REMARK  139  A    between atoms: _337  and  _338
REMARK  140  A    between atoms: _340  and  _342
REMARK  141  A    between atoms: _342  and  _343
REMARK  142  A    between atoms: _345  and  _347
REMARK  143  A    between atoms: _347  and  _348
REMARK  144  A    between atoms: _347  and  _350
REMARK  145  A    between atoms: _353  and  _355
REMARK  146  A    between atoms: _355  and  _356
REMARK  147  A    between atoms: _359  and  _361
REMARK  148  A    between atoms: _361  and  _362
REMARK  149  A    between atoms: _361  and  _364
REMARK  150  A    between atoms: _364  and  _365
REMARK  151  A    between atoms: _368  and  _370
REMARK  152  A    between atoms: _370  and  _371
REMARK  153  A    between atoms: _370  and  _373
REMARK  154  A    between atoms: _376  and  _378
REMARK  155  A    between atoms: _378  and  _379
REMARK  156  A    between atoms: _381  and  _383
REMARK  157  A    between atoms: _383  and  _384
REMARK  158  A    between atoms: _383  and  _386
REMARK  159  A    between atoms: _389  and  _391
REMARK  160  A    between atoms: _391  and  _392
REMARK  161  A    between atoms: _391  and  _394
REMARK  162  A    between atoms: _394  and  _395
REMARK  163  A    between atoms: _398  and  _400
REMARK  164  A    between atoms: _400  and  _401
REMARK  165  A    between atoms: _400  and  _403
REMARK  166  A    between atoms: _403  and  _404
REMARK  167  A    between atoms: _407  and  _409
REMARK  168  A    between atoms: _409  and  _410
REMARK  169  A    between atoms: _409  and  _412
REMARK  170  A    between atoms: _412  and  _413
REMARK  171  A    between atoms: _416  and  _418
REMARK  172  A    between atoms: _418  and  _419
REMARK  173  A    between atoms: _418  and  _421
REMARK  174  A    between atoms: _421  and  _422
REMARK  175  A    between atoms: _424  and  _426
REMARK  176  A    between atoms: _426  and  _427
REMARK  177  A    between atoms: _426  and  _429
REMARK  178  A    between atoms: _429  and  _430
REMARK  179  A    between atoms: _433  and  _435
REMARK  180  A    between atoms: _435  and  _436
REMARK  181  A    between atoms: _435  and  _438
REMARK  182  A    between atoms: _438  and  _439
REMARK  183  A    between atoms: _439  and  _440
REMARK  184  A    between atoms: _445  and  _447
REMARK  185  A    between atoms: _447  and  _448
REMARK  186  A    between atoms: _447  and  _450
REMARK  187  A    between atoms: _450  and  _451
REMARK  188  A    between atoms: _454  and  _456
REMARK  189  A    between atoms: _456  and  _457
REMARK  190  A    between atoms: _456  and  _459
REMARK  191  A    between atoms: _459  and  _460
REMARK  192  A    between atoms: _465  and  _467
REMARK  193  A    between atoms: _467  and  _468
REMARK  194  A    between atoms: _467  and  _470
REMARK  195  A    between atoms: _470  and  _471
REMARK  196  A    between atoms: _474  and  _476
REMARK  197  A    between atoms: _476  and  _477
REMARK  198  A    between atoms: _476  and  _479
REMARK  199  A    between atoms: _479  and  _480
REMARK  200  A    between atoms: _480  and  _481
REMARK  201  A    between atoms: _481  and  _482
REMARK  202  A    between atoms: _491  and  _493
REMARK  203  A    between atoms: _493  and  _494
REMARK  204  A    between atoms: _493  and  _496
REMARK  205  A    between atoms: _496  and  _497
REMARK  206  A    between atoms: _500  and  _502
REMARK  207  A    between atoms: _502  and  _503
REMARK  208  A    between atoms: _502  and  _505
REMARK  209  A    between atoms: _505  and  _506
REMARK  210  A    between atoms: _506  and  _507
REMARK  211  A    between atoms: _510  and  _512
REMARK  212  A    between atoms: _512  and  _513
REMARK  213  A    between atoms: _512  and  _515
REMARK  214  A    between atoms: _515  and  _516
REMARK  215  A    between atoms: _522  and  _524
REMARK  216  A    between atoms: _524  and  _525
REMARK  217  A    between atoms: _524  and  _527
REMARK  218  A    between atoms: _527  and  _528
REMARK  219  A    between atoms: _531  and  _533
REMARK  220  A    between atoms: _533  and  _534
REMARK  221  A    between atoms: _533  and  _536
REMARK  222  A    between atoms: _536  and  _537
REMARK  223  A    between atoms: _540  and  _542
REMARK  224  A    between atoms: _542  and  _543
REMARK  225  A    between atoms: _542  and  _545
REMARK  226  A    between atoms: _545  and  _546
REMARK  227  A    between atoms: _546  and  _547
REMARK  228  A    between atoms: _550  and  _552
REMARK  229  A    between atoms: _552  and  _553
REMARK  230  A    between atoms: _552  and  _555
REMARK  231  A    between atoms: _555  and  _556
REMARK  232  A    between atoms: _559  and  _561
REMARK  233  A    between atoms: _561  and  _562
REMARK  234  A    between atoms: _565  and  _567
REMARK  235  A    between atoms: _567  and  _568
REMARK  236  A    between atoms: _571  and  _573
REMARK  237  A    between atoms: _573  and  _574
REMARK  238  A    between atoms: _573  and  _576
REMARK  239  A    between atoms: _576  and  _577
REMARK  240  A    between atoms: _577  and  _578
REMARK  241  A    between atoms: _578  and  _579
REMARK  242  A    between atoms: _588  and  _590
REMARK  243  A    between atoms: _590  and  _591
REMARK  244  A    between atoms: _590  and  _593
REMARK  245  A    between atoms: _593  and  _594
REMARK  246  A    between atoms: _597  and  _599
REMARK  247  A    between atoms: _599  and  _600
REMARK  248  A    between atoms: _603  and  _605
REMARK  249  A    between atoms: _605  and  _606
REMARK  250  A    between atoms: _605  and  _608
REMARK  251  A    between atoms: _608  and  _609
REMARK  252  A    between atoms: _612  and  _614
REMARK  253  A    between atoms: _614  and  _615
REMARK  254  A    between atoms: _614  and  _617
REMARK  255  A    between atoms: _617  and  _618
REMARK  256  A    between atoms: _618  and  _619
REMARK  257  A    between atoms: _622  and  _624
REMARK  258  A    between atoms: _624  and  _625
REMARK  259  A    between atoms: _624  and  _627
REMARK  260  A    between atoms: _627  and  _628
REMARK  261  A    between atoms: _631  and  _633
REMARK  262  A    between atoms: _633  and  _634
REMARK  263  A    between atoms: _633  and  _636
REMARK  264  A    between atoms: _636  and  _637
REMARK  265  A    between atoms: _640  and  _642
REMARK  266  A    between atoms: _642  and  _643
REMARK  267  A    between atoms: _642  and  _645
REMARK  268  A    between atoms: _645  and  _646
REMARK  269  A    between atoms: _646  and  _647
REMARK  270  A    between atoms: _647  and  _648
REMARK  271  A    between atoms: _657  and  _659
REMARK  272  A    between atoms: _659  and  _660
REMARK  273  A    between atoms: _659  and  _662
REMARK  274  A    between atoms: _665  and  _667
REMARK  275  A    between atoms: _667  and  _668
REMARK  276  A    between atoms: _667  and  _670
REMARK  277  A    between atoms: _670  and  _671
REMARK  278  A    between atoms: _677  and  _679
REMARK  279  A    between atoms: _679  and  _680
REMARK  280  A    between atoms: _679  and  _682
REMARK  281  A    between atoms: _685  and  _687
REMARK  282  A    between atoms: _687  and  _688
REMARK  283  A    between atoms: _687  and  _690
REMARK  284  A    between atoms: _690  and  _691
REMARK  285  A    between atoms: _691  and  _692
REMARK  286  A    between atoms: _692  and  _693
REMARK  287  A    between atoms: _693  and  _694
REMARK                            x       y       z     vdW  Elec       q    Type
REMARK                         _______ _______ _______ _____ _____    ______ ____
ROOT
ATOM      1  CA  LEU A   1      23.739 -26.100  11.651  0.00  0.00    +0.133 C 
ENDROOT
BRANCH   1   2
ATOM      2  N   LEU A   1      25.179 -25.911  11.790  0.00  0.00    -0.239 NA
ATOM      3  H   LEU A   1      25.748 -25.625  10.968  0.00  0.00    +0.142 HD
ENDBRANCH   1   2
BRANCH   1   4
ATOM      4  C   LEU A   1      23.329 -27.501  11.219  0.00  0.00    +0.224 C 
ATOM      5  O   LEU A   1      22.141 -27.764  11.014  0.00  0.00    -0.287 OA
ENDBRANCH   1   4
BRANCH   1   6
ATOM      6  CB  LEU A   1      23.194 -25.102  10.627  0.00  0.00    +0.025 C 
BRANCH   6   7
ATOM      7  CG  LEU A   1      23.434 -23.632  10.954  0.00  0.00    +0.002 C 
ATOM      8  CD2 LEU A   1      22.691 -23.257  12.231  0.00  0.00    +0.000 C 
ATOM      9  CD1 LEU A   1      23.007 -22.779   9.757  0.00  0.00    +0.000 C 
ENDBRANCH   6   7
ENDBRANCH   1   6
TORSDOF 4
REMARK  Name = ../refined-set-2016/3vje/3vje_pocket.pdb
REMARK  287 active torsions:
REMARK  status: ('A' for Active; 'I' for Inactive)
REMARK    1  A    between atoms: _1  and  _3
REMARK    2  A    between atoms: _3  and  _4
REMARK    3  A    between atoms: _3  and  _6
REMARK    4  A    between atoms: _6  and  _7
REMARK    5  A    between atoms: _10  and  _12
REMARK    6  A    between atoms: _12  and  _13
REMARK    7  A    between atoms: _12  and  _15
REMARK    8  A    between atoms: _15  and  _16
REMARK    9  A    between atoms: _16  and  _17
REMARK   10  A    between atoms: _19  and  _21
REMARK   11  A    between atoms: _21  and  _22
REMARK   12  A    between atoms: _21  and  _24
REMARK   13  A    between atoms: _24  and  _25
REMARK   14  A    between atoms: _25  and  _26
REMARK   15  A    between atoms: _26  and  _27
REMARK   16  A    between atoms: _27  and  _28
REMARK   17  A    between atoms: _32  and  _34
REMARK   18  A    between atoms: _34  and  _35
REMARK   19  A    between atoms: _34  and  _37
REMARK   20  A    between atoms: _37  and  _38
REMARK   21  A    between atoms: _43  and  _45
REMARK   22  A    between atoms: _45  and  _46
REMARK   23  A    between atoms: _45  and  _48
REMARK   24  A    between atoms: _48  and  _49
REMARK   25  A    between atoms: _51  and  _53
REMARK   26  A    between atoms: _53  and  _54
REMARK   27  A    between atoms: _53  and  _56
REMARK   28  A    between atoms: _56  and  _57
REMARK   29  A    between atoms: _57  and  _58
REMARK   30  A    between atoms: _58  and  _59
REMARK   31  A    between atoms: _59  and  _60
REMARK   32  A    between atoms: _64  and  _66
REMARK   33  A    between atoms: _66  and  _67
REMARK   34  A    between atoms: _66  and  _69
REMARK   35  A    between atoms: _69  and  _70
REMARK   36  A    between atoms: _72  and  _74
REMARK   37  A    between atoms: _74  and  _75
REMARK   38  A    between atoms: _74  and  _77
REMARK   39  A    between atoms: _77  and  _78
REMARK   40  A    between atoms: _84  and  _86
REMARK   41  A    between atoms: _86  and  _87
REMARK   42  A    between atoms: _86  and  _89
REMARK   43  A    between atoms: _89  and  _90
REMARK   44  A    between atoms: _92  and  _94
REMARK   45  A    between atoms: _94  and  _95
REMARK   46  A    between atoms: _94  and  _97
REMARK   47  A    between atoms: _97  and  _98
REMARK   48  A    between atoms: _103  and  _104
REMARK   49  A    between atoms: _106  and  _108
REMARK   50  A    between atoms: _108  and  _109
REMARK   51  A    between atoms: _112  and  _114
REMARK   52  A    between atoms: _114  and  _115
REMARK   53  A    between atoms: _114  and  _117
REMARK   54  A    between atoms: _117  and  _118
REMARK   55  A    between atoms: _124  and  _126
REMARK   56  A    between atoms: _126  and  _127
REMARK   57  A    between atoms: _126  and  _129
REMARK   58  A    between atoms: _129  and  _130
REMARK   59  A    between atoms: _133  and  _135
REMARK   60  A    between atoms: _135  and  _136
REMARK   61  A    between atoms: _135  and  _138
REMARK   62  A    between atoms: _138  and  _139
REMARK   63  A    between atoms: _142  and  _144
REMARK   64  A    between atoms: _144  and  _145
REMARK   65  A    between atoms: _148  and  _150
REMARK   66  A    between atoms: _150  and  _151
REMARK   67  A    between atoms: _150  and  _153
REMARK   68  A    between atoms: _156  and  _158
REMARK   69  A    between atoms: _158  and  _159
REMARK   70  A    between atoms: _158  and  _161
REMARK   71  A    between atoms: _161  and  _162
REMARK   72  A    between atoms: _172  and  _174
REMARK   73  A    between atoms: _174  and  _175
REMARK   74  A    between atoms: _178  and  _180
REMARK   75  A    between atoms: _180  and  _181
REMARK   76  A    between atoms: _180  and  _183
REMARK   77  A    between atoms: _183  and  _184
REMARK   78  A    between atoms: _187  and  _189
REMARK   79  A    between atoms: _189  and  _190
REMARK   80  A    between atoms: _189  and  _192
REMARK   81  A    between atoms: _192  and  _193
REMARK   82  A    between atoms: _198  and  _199
REMARK   83  A    between atoms: _201  and  _203
REMARK   84  A    between atoms: _203  and  _204
REMARK   85  A    between atoms: _207  and  _209
REMARK   86  A    between atoms: _209  and  _210
REMARK   87  A    between atoms: _209  and  _212
REMARK   88  A    between atoms: _215  and  _217
REMARK   89  A    between atoms: _217  and  _218
REMARK   90  A    between atoms: _217  and  _220
REMARK   91  A    between atoms: _222  and  _224
REMARK   92  A    between atoms: _224  and  _225
REMARK   93  A    between atoms: _224  and  _227
REMARK   94  A    between atoms: _227  and  _228
REMARK   95  A    between atoms: _228  and  _229
REMARK   96  A    between atoms: _229  and  _230
REMARK   97  A    between atoms: _239  and  _241
REMARK   98  A    between atoms: _241  and  _242
REMARK   99  A    between atoms: _241  and  _244
REMARK  100  A    between atoms: _244  and  _245
REMARK  101  A    between atoms: _245  and  _246
REMARK  102  A    between atoms: _246  and  _247
REMARK  103  A    between atoms: _247  and  _248
REMARK  104  A    between atoms: _252  and  _254
REMARK  105  A    between atoms: _254  and  _255
REMARK  106  A    between atoms: _254  and  _257
REMARK  107  A    between atoms: _257  and  _258
REMARK  108  A    between atoms: _261  and  _263
REMARK  109  A    between atoms: _263  and  _264
REMARK  110  A    between atoms: _263  and  _266
REMARK  111  A    between atoms: _266  and  _267
REMARK  112  A    between atoms: _270  and  _272
REMARK  113  A    between atoms: _272  and  _273
REMARK  114  A    between atoms: _272  and  _275
REMARK  115  A    between atoms: _275  and  _276
REMARK  116  A    between atoms: _279  and  _281
REMARK  117  A    between atoms: _281  and  _282
REMARK  118  A    between atoms: _281  and  _284
REMARK  119  A    between atoms: _284  and  _285
REMARK  120  A    between atoms: _291  and  _293
REMARK  121  A    between atoms: _293  and  _294
REMARK  122  A    between atoms: _293  and  _296
REMARK  123  A    between atoms: _296  and  _297
REMARK  124  A    between atoms: _300  and  _302
REMARK  125  A    between atoms: _302  and  _303
REMARK  126  A    between atoms: _302  and  _305
REMARK  127  A    between atoms: _305  and  _306
REMARK  128  A    between atoms: _309  and  _311
REMARK  129  A    between atoms: _311  and  _312
REMARK  130  A    between atoms: _311  and  _314
REMARK  131  A    between atoms: _314  and  _315
REMARK  132  A    between atoms: _318  and  _320
REMARK  133  A    between atoms: _320  and  _321
REMARK  134  A    between atoms: _320  and  _323
REMARK  135  A    between atoms: _326  and  _328
REMARK  136  A    between atoms: _328  and  _329
REMARK  137  A    between atoms: _328  and  _331
REMARK  138  A    between atoms: _331  and  _332
REMARK  139  A    between atoms: _337  and  _338
REMARK  140  A    between atoms: _340  and  _342
REMARK  141  A    between atoms: _342  and  _343
REMARK  142  A    between atoms: _345  and  _347
REMARK  143  A    between atoms: _347  and  _348
REMARK  144  A    between atoms: _347  and  _350
REMARK  145  A    between atoms: _353  and  _355
REMARK  146  A    between atoms: _355  and  _356
REMARK  147  A    between atoms: _359  and  _361
REMARK  148  A    between atoms: _361  and  _362
REMARK  149  A    between atoms: _361  and  _364
REMARK  150  A    between atoms: _364  and  _365
REMARK  151  A    between atoms: _368  and  _370
REMARK  152  A    between atoms: _370  and  _371
REMARK  153  A    between atoms: _370  and  _373
REMARK  154  A    between atoms: _376  and  _378
REMARK  155  A    between atoms: _378  and  _379
REMARK  156  A    between atoms: _381  and  _383
REMARK  157  A    between atoms: _383  and  _384
REMARK  158  A    between atoms: _383  and  _386
REMARK  159  A    between atoms: _389  and  _391
REMARK  160  A    between atoms: _391  and  _392
REMARK  161  A    between atoms: _391  and  _394
REMARK  162  A    between atoms: _394  and  _395
REMARK  163  A    between atoms: _398  and  _400
REMARK  164  A    between atoms: _400  and  _401
REMARK  165  A    between atoms: _400  and  _403
REMARK  166  A    between atoms: _403  and  _404
REMARK  167  A    between atoms: _407  and  _409
REMARK  168  A    between atoms: _409  and  _410
REMARK  169  A    between atoms: _409  and  _412
REMARK  170  A    between atoms: _412  and  _413
REMARK  171  A    between atoms: _416  and  _418
REMARK  172  A    between atoms: _418  and  _419
REMARK  173  A    between atoms: _418  and  _421
REMARK  174  A    between atoms: _421  and  _422
REMARK  175  A    between atoms: _424  and  _426
REMARK  176  A    between atoms: _426  and  _427
REMARK  177  A    between atoms: _426  and  _429
REMARK  178  A    between atoms: _429  and  _430
REMARK  179  A    between atoms: _433  and  _435
REMARK  180  A    between atoms: _435  and  _436
REMARK  181  A    between atoms: _435  and  _438
REMARK  182  A    between atoms: _438  and  _439
REMARK  183  A    between atoms: _439  and  _440
REMARK  184  A    between atoms: _445  and  _447
REMARK  185  A    between atoms: _447  and  _448
REMARK  186  A    between atoms: _447  and  _450
REMARK  187  A    between atoms: _450  and  _451
REMARK  188  A    between atoms: _454  and  _456
REMARK  189  A    between atoms: _456  and  _457
REMARK  190  A    between atoms: _456  and  _459
REMARK  191  A    between atoms: _459  and  _460
REMARK  192  A    between atoms: _465  and  _467
REMARK  193  A    between atoms: _467  and  _468
REMARK  194  A    between atoms: _467  and  _470
REMARK  195  A    between atoms: _470  and  _471
REMARK  196  A    between atoms: _474  and  _476
REMARK  197  A    between atoms: _476  and  _477
REMARK  198  A    between atoms: _476  and  _479
REMARK  199  A    between atoms: _479  and  _480
REMARK  200  A    between atoms: _480  and  _481
REMARK  201  A    between atoms: _481  and  _482
REMARK  202  A    between atoms: _491  and  _493
REMARK  203  A    between atoms: _493  and  _494
REMARK  204  A    between atoms: _493  and  _496
REMARK  205  A    between atoms: _496  and  _497
REMARK  206  A    between atoms: _500  and  _502
REMARK  207  A    between atoms: _502  and  _503
REMARK  208  A    between atoms: _502  and  _505
REMARK  209  A    between atoms: _505  and  _506
REMARK  210  A    between atoms: _506  and  _507
REMARK  211  A    between atoms: _510  and  _512
REMARK  212  A    between atoms: _512  and  _513
REMARK  213  A    between atoms: _512  and  _515
REMARK  214  A    between atoms: _515  and  _516
REMARK  215  A    between atoms: _522  and  _524
REMARK  216  A    between atoms: _524  and  _525
REMARK  217  A    between atoms: _524  and  _527
REMARK  218  A    between atoms: _527  and  _528
REMARK  219  A    between atoms: _531  and  _533
REMARK  220  A    between atoms: _533  and  _534
REMARK  221  A    between atoms: _533  and  _536
REMARK  222  A    between atoms: _536  and  _537
REMARK  223  A    between atoms: _540  and  _542
REMARK  224  A    between atoms: _542  and  _543
REMARK  225  A    between atoms: _542  and  _545
REMARK  226  A    between atoms: _545  and  _546
REMARK  227  A    between atoms: _546  and  _547
REMARK  228  A    between atoms: _550  and  _552
REMARK  229  A    between atoms: _552  and  _553
REMARK  230  A    between atoms: _552  and  _555
REMARK  231  A    between atoms: _555  and  _556
REMARK  232  A    between atoms: _559  and  _561
REMARK  233  A    between atoms: _561  and  _562
REMARK  234  A    between atoms: _565  and  _567
REMARK  235  A    between atoms: _567  and  _568
REMARK  236  A    between atoms: _571  and  _573
REMARK  237  A    between atoms: _573  and  _574
REMARK  238  A    between atoms: _573  and  _576
REMARK  239  A    between atoms: _576  and  _577
REMARK  240  A    between atoms: _577  and  _578
REMARK  241  A    between atoms: _578  and  _579
REMARK  242  A    between atoms: _588  and  _590
REMARK  243  A    between atoms: _590  and  _591
REMARK  244  A    between atoms: _590  and  _593
REMARK  245  A    between atoms: _593  and  _594
REMARK  246  A    between atoms: _597  and  _599
REMARK  247  A    between atoms: _599  and  _600
REMARK  248  A    between atoms: _603  and  _605
REMARK  249  A    between atoms: _605  and  _606
REMARK  250  A    between atoms: _605  and  _608
REMARK  251  A    between atoms: _608  and  _609
REMARK  252  A    between atoms: _612  and  _614
REMARK  253  A    between atoms: _614  and  _615
REMARK  254  A    between atoms: _614  and  _617
REMARK  255  A    between atoms: _617  and  _618
REMARK  256  A    between atoms: _618  and  _619
REMARK  257  A    between atoms: _622  and  _624
REMARK  258  A    between atoms: _624  and  _625
REMARK  259  A    between atoms: _624  and  _627
REMARK  260  A    between atoms: _627  and  _628
REMARK  261  A    between atoms: _631  and  _633
REMARK  262  A    between atoms: _633  and  _634
REMARK  263  A    between atoms: _633  and  _636
REMARK  264  A    between atoms: _636  and  _637
REMARK  265  A    between atoms: _640  and  _642
REMARK  266  A    between atoms: _642  and  _643
REMARK  267  A    between atoms: _642  and  _645
REMARK  268  A    between atoms: _645  and  _646
REMARK  269  A    between atoms: _646  and  _647
REMARK  270  A    between atoms: _647  and  _648
REMARK  271  A    between atoms: _657  and  _659
REMARK  272  A    between atoms: _659  and  _660
REMARK  273  A    between atoms: _659  and  _662
REMARK  274  A    between atoms: _665  and  _667
REMARK  275  A    between atoms: _667  and  _668
REMARK  276  A    between atoms: _667  and  _670
REMARK  277  A    between atoms: _670  and  _671
REMARK  278  A    between atoms: _677  and  _679
REMARK  279  A    between atoms: _679  and  _680
REMARK  280  A    between atoms: _679  and  _682
REMARK  281  A    between atoms: _685  and  _687
REMARK  282  A    between atoms: _687  and  _688
REMARK  283  A    between atoms: _687  and  _690
REMARK  284  A    between atoms: _690  and  _691
REMARK  285  A    between atoms: _691  and  _692
REMARK  286  A    between atoms: _692  and  _693
REMARK  287  A    between atoms: _693  and  _694
REMARK                            x       y       z     vdW  Elec       q    Type
REMARK                         _______ _______ _______ _____ _____    ______ ____
ROOT
ATOM      1  CA  LEU A   1      20.154 -19.682   1.931  0.00  0.00    +0.133 C 
ENDROOT
BRANCH   1   2
ATOM      2  N   LEU A   1      20.917 -20.378   0.902  0.00  0.00    -0.239 NA
ATOM      3  H   LEU A   1      21.337 -21.307   1.107  0.00  0.00    +0.142 HD
ENDBRANCH   1   2
BRANCH   1   4
ATOM      4  C   LEU A   1      20.785 -18.324   2.254  0.00  0.00    +0.224 C 
ATOM      5  O   LEU A   1      20.090 -17.305   2.263  0.00  0.00    -0.287 OA
ENDBRANCH   1   4
BRANCH   1   6
ATOM      6  CB  LEU A   1      20.028 -20.536   3.198  0.00  0.00    +0.025 C 
BRANCH   6   7
ATOM      7  CG  LEU A   1      19.545 -19.848   4.472  0.00  0.00    +0.002 C 
ATOM      8  CD2 LEU A   1      19.687 -20.891   5.584  0.00  0.00    +0.000 C 
ATOM      9  CD1 LEU A   1      18.097 -19.376   4.304  0.00  0.00    +0.000 C 
ENDBRANCH   6   7
ENDBRANCH   1   6
TORSDOF 4
REMARK  Name = ../refined-set-2016/3vje/3vje_pocket.pdb
REMARK  287 active torsions:
REMARK  status: ('A' for Active; 'I' for Inactive)
REMARK    1  A    between atoms: _1  and  _3
REMARK    2  A    between atoms: _3  and  _4
REMARK    3  A    between atoms: _3  and  _6
REMARK    4  A    between atoms: _6  and  _7
REMARK    5  A    between atoms: _10  and  _12
REMARK    6  A    between atoms: _12  and  _13
REMARK    7  A    between atoms: _12  and  _15
REMARK    8  A    between atoms: _15  and  _16
REMARK    9  A    between atoms: _16  and  _17
REMARK   10  A    between atoms: _19  and  _21
REMARK   11  A    between atoms: _21  and  _22
REMARK   12  A    between atoms: _21  and  _24
REMARK   13  A    between atoms: _24  and  _25
REMARK   14  A    between atoms: _25  and  _26
REMARK   15  A    between atoms: _26  and  _27
REMARK   16  A    between atoms: _27  and  _28
REMARK   17  A    between atoms: _32  and  _34
REMARK   18  A    between atoms: _34  and  _35
REMARK   19  A    between atoms: _34  and  _37
REMARK   20  A    between atoms: _37  and  _38
REMARK   21  A    between atoms: _43  and  _45
REMARK   22  A    between atoms: _45  and  _46
REMARK   23  A    between atoms: _45  and  _48
REMARK   24  A    between atoms: _48  and  _49
REMARK   25  A    between atoms: _51  and  _53
REMARK   26  A    between atoms: _53  and  _54
REMARK   27  A    between atoms: _53  and  _56
REMARK   28  A    between atoms: _56  and  _57
REMARK   29  A    between atoms: _57  and  _58
REMARK   30  A    between atoms: _58  and  _59
REMARK   31  A    between atoms: _59  and  _60
REMARK   32  A    between atoms: _64  and  _66
REMARK   33  A    between atoms: _66  and  _67
REMARK   34  A    between atoms: _66  and  _69
REMARK   35  A    between atoms: _69  and  _70
REMARK   36  A    between atoms: _72  and  _74
REMARK   37  A    between atoms: _74  and  _75
REMARK   38  A    between atoms: _74  and  _77
REMARK   39  A    between atoms: _77  and  _78
REMARK   40  A    between atoms: _84  and  _86
REMARK   41  A    between atoms: _86  and  _87
REMARK   42  A    between atoms: _86  and  _89
REMARK   43  A    between atoms: _89  and  _90
REMARK   44  A    between atoms: _92  and  _94
REMARK   45  A    between atoms: _94  and  _95
REMARK   46  A    between atoms: _94  and  _97
REMARK   47  A    between atoms: _97  and  _98
REMARK   48  A    between atoms: _103  and  _104
REMARK   49  A    between atoms: _106  and  _108
REMARK   50  A    between atoms: _108  and  _109
REMARK   51  A    between atoms: _112  and  _114
REMARK   52  A    between atoms: _114  and  _115
REMARK   53  A    between atoms: _114  and  _117
REMARK   54  A    between atoms: _117  and  _118
REMARK   55  A    between atoms: _124  and  _126
REMARK   56  A    between atoms: _126  and  _127
REMARK   57  A    between atoms: _126  and  _129
REMARK   58  A    between atoms: _129  and  _130
REMARK   59  A    between atoms: _133  and  _135
REMARK   60  A    between atoms: _135  and  _136
REMARK   61  A    between atoms: _135  and  _138
REMARK   62  A    between atoms: _138  and  _139
REMARK   63  A    between atoms: _142  and  _144
REMARK   64  A    between atoms: _144  and  _145
REMARK   65  A    between atoms: _148  and  _150
REMARK   66  A    between atoms: _150  and  _151
REMARK   67  A    between atoms: _150  and  _153
REMARK   68  A    between atoms: _156  and  _158
REMARK   69  A    between atoms: _158  and  _159
REMARK   70  A    between atoms: _158  and  _161
REMARK   71  A    between atoms: _161  and  _162
REMARK   72  A    between atoms: _172  and  _174
REMARK   73  A    between atoms: _174  and  _175
REMARK   74  A    between atoms: _178  and  _180
REMARK   75  A    between atoms: _180  and  _181
REMARK   76  A    between atoms: _180  and  _183
REMARK   77  A    between atoms: _183  and  _184
REMARK   78  A    between atoms: _187  and  _189
REMARK   79  A    between atoms: _189  and  _190
REMARK   80  A    between atoms: _189  and  _192
REMARK   81  A    between atoms: _192  and  _193
REMARK   82  A    between atoms: _198  and  _199
REMARK   83  A    between atoms: _201  and  _203
REMARK   84  A    between atoms: _203  and  _204
REMARK   85  A    between atoms: _207  and  _209
REMARK   86  A    between atoms: _209  and  _210
REMARK   87  A    between atoms: _209  and  _212
REMARK   88  A    between atoms: _215  and  _217
REMARK   89  A    between atoms: _217  and  _218
REMARK   90  A    between atoms: _217  and  _220
REMARK   91  A    between atoms: _222  and  _224
REMARK   92  A    between atoms: _224  and  _225
REMARK   93  A    between atoms: _224  and  _227
REMARK   94  A    between atoms: _227  and  _228
REMARK   95  A    between atoms: _228  and  _229
REMARK   96  A    between atoms: _229  and  _230
REMARK   97  A    between atoms: _239  and  _241
REMARK   98  A    between atoms: _241  and  _242
REMARK   99  A    between atoms: _241  and  _244
REMARK  100  A    between atoms: _244  and  _245
REMARK  101  A    between atoms: _245  and  _246
REMARK  102  A    between atoms: _246  and  _247
REMARK  103  A    between atoms: _247  and  _248
REMARK  104  A    between atoms: _252  and  _254
REMARK  105  A    between atoms: _254  and  _255
REMARK  106  A    between atoms: _254  and  _257
REMARK  107  A    between atoms: _257  and  _258
REMARK  108  A    between atoms: _261  and  _263
REMARK  109  A    between atoms: _263  and  _264
REMARK  110  A    between atoms: _263  and  _266
REMARK  111  A    between atoms: _266  and  _267
REMARK  112  A    between atoms: _270  and  _272
REMARK  113  A    between atoms: _272  and  _273
REMARK  114  A    between atoms: _272  and  _275
REMARK  115  A    between atoms: _275  and  _276
REMARK  116  A    between atoms: _279  and  _281
REMARK  117  A    between atoms: _281  and  _282
REMARK  118  A    between atoms: _281  and  _284
REMARK  119  A    between atoms: _284  and  _285
REMARK  120  A    between atoms: _291  and  _293
REMARK  121  A    between atoms: _293  and  _294
REMARK  122  A    between atoms: _293  and  _296
REMARK  123  A    between atoms: _296  and  _297
REMARK  124  A    between atoms: _300  and  _302
REMARK  125  A    between atoms: _302  and  _303
REMARK  126  A    between atoms: _302  and  _305
REMARK  127  A    between atoms: _305  and  _306
REMARK  128  A    between atoms: _309  and  _311
REMARK  129  A    between atoms: _311  and  _312
REMARK  130  A    between atoms: _311  and  _314
REMARK  131  A    between atoms: _314  and  _315
REMARK  132  A    between atoms: _318  and  _320
REMARK  133  A    between atoms: _320  and  _321
REMARK  134  A    between atoms: _320  and  _323
REMARK  135  A    between atoms: _326  and  _328
REMARK  136  A    between atoms: _328  and  _329
REMARK  137  A    between atoms: _328  and  _331
REMARK  138  A    between atoms: _331  and  _332
REMARK  139  A    between atoms: _337  and  _338
REMARK  140  A    between atoms: _340  and  _342
REMARK  141  A    between atoms: _342  and  _343
REMARK  142  A    between atoms: _345  and  _347
REMARK  143  A    between atoms: _347  and  _348
REMARK  144  A    between atoms: _347  and  _350
REMARK  145  A    between atoms: _353  and  _355
REMARK  146  A    between atoms: _355  and  _356
REMARK  147  A    between atoms: _359  and  _361
REMARK  148  A    between atoms: _361  and  _362
REMARK  149  A    between atoms: _361  and  _364
REMARK  150  A    between atoms: _364  and  _365
REMARK  151  A    between atoms: _368  and  _370
REMARK  152  A    between atoms: _370  and  _371
REMARK  153  A    between atoms: _370  and  _373
REMARK  154  A    between atoms: _376  and  _378
REMARK  155  A    between atoms: _378  and  _379
REMARK  156  A    between atoms: _381  and  _383
REMARK  157  A    between atoms: _383  and  _384
REMARK  158  A    between atoms: _383  and  _386
REMARK  159  A    between atoms: _389  and  _391
REMARK  160  A    between atoms: _391  and  _392
REMARK  161  A    between atoms: _391  and  _394
REMARK  162  A    between atoms: _394  and  _395
REMARK  163  A    between atoms: _398  and  _400
REMARK  164  A    between atoms: _400  and  _401
REMARK  165  A    between atoms: _400  and  _403
REMARK  166  A    between atoms: _403  and  _404
REMARK  167  A    between atoms: _407  and  _409
REMARK  168  A    between atoms: _409  and  _410
REMARK  169  A    between atoms: _409  and  _412
REMARK  170  A    between atoms: _412  and  _413
REMARK  171  A    between atoms: _416  and  _418
REMARK  172  A    between atoms: _418  and  _419
REMARK  173  A    between atoms: _418  and  _421
REMARK  174  A    between atoms: _421  and  _422
REMARK  175  A    between atoms: _424  and  _426
REMARK  176  A    between atoms: _426  and  _427
REMARK  177  A    between atoms: _426  and  _429
REMARK  178  A    between atoms: _429  and  _430
REMARK  179  A    between atoms: _433  and  _435
REMARK  180  A    between atoms: _435  and  _436
REMARK  181  A    between atoms: _435  and  _438
REMARK  182  A    between atoms: _438  and  _439
REMARK  183  A    between atoms: _439  and  _440
REMARK  184  A    between atoms: _445  and  _447
REMARK  185  A    between atoms: _447  and  _448
REMARK  186  A    between atoms: _447  and  _450
REMARK  187  A    between atoms: _450  and  _451
REMARK  188  A    between atoms: _454  and  _456
REMARK  189  A    between atoms: _456  and  _457
REMARK  190  A    between atoms: _456  and  _459
REMARK  191  A    between atoms: _459  and  _460
REMARK  192  A    between atoms: _465  and  _467
REMARK  193  A    between atoms: _467  and  _468
REMARK  194  A    between atoms: _467  and  _470
REMARK  195  A    between atoms: _470  and  _471
REMARK  196  A    between atoms: _474  and  _476
REMARK  197  A    between atoms: _476  and  _477
REMARK  198  A    between atoms: _476  and  _479
REMARK  199  A    between atoms: _479  and  _480
REMARK  200  A    between atoms: _480  and  _481
REMARK  201  A    between atoms: _481  and  _482
REMARK  202  A    between atoms: _491  and  _493
REMARK  203  A    between atoms: _493  and  _494
REMARK  204  A    between atoms: _493  and  _496
REMARK  205  A    between atoms: _496  and  _497
REMARK  206  A    between atoms: _500  and  _502
REMARK  207  A    between atoms: _502  and  _503
REMARK  208  A    between atoms: _502  and  _505
REMARK  209  A    between atoms: _505  and  _506
REMARK  210  A    between atoms: _506  and  _507
REMARK  211  A    between atoms: _510  and  _512
REMARK  212  A    between atoms: _512  and  _513
REMARK  213  A    between atoms: _512  and  _515
REMARK  214  A    between atoms: _515  and  _516
REMARK  215  A    between atoms: _522  and  _524
REMARK  216  A    between atoms: _524  and  _525
REMARK  217  A    between atoms: _524  and  _527
REMARK  218  A    between atoms: _527  and  _528
REMARK  219  A    between atoms: _531  and  _533
REMARK  220  A    between atoms: _533  and  _534
REMARK  221  A    between atoms: _533  and  _536
REMARK  222  A    between atoms: _536  and  _537
REMARK  223  A    between atoms: _540  and  _542
REMARK  224  A    between atoms: _542  and  _543
REMARK  225  A    between atoms: _542  and  _545
REMARK  226  A    between atoms: _545  and  _546
REMARK  227  A    between atoms: _546  and  _547
REMARK  228  A    between atoms: _550  and  _552
REMARK  229  A    between atoms: _552  and  _553
REMARK  230  A    between atoms: _552  and  _555
REMARK  231  A    between atoms: _555  and  _556
REMARK  232  A    between atoms: _559  and  _561
REMARK  233  A    between atoms: _561  and  _562
REMARK  234  A    between atoms: _565  and  _567
REMARK  235  A    between atoms: _567  and  _568
REMARK  236  A    between atoms: _571  and  _573
REMARK  237  A    between atoms: _573  and  _574
REMARK  238  A    between atoms: _573  and  _576
REMARK  239  A    between atoms: _576  and  _577
REMARK  240  A    between atoms: _577  and  _578
REMARK  241  A    between atoms: _578  and  _579
REMARK  242  A    between atoms: _588  and  _590
REMARK  243  A    between atoms: _590  and  _591
REMARK  244  A    between atoms: _590  and  _593
REMARK  245  A    between atoms: _593  and  _594
REMARK  246  A    between atoms: _597  and  _599
REMARK  247  A    between atoms: _599  and  _600
REMARK  248  A    between atoms: _603  and  _605
REMARK  249  A    between atoms: _605  and  _606
REMARK  250  A    between atoms: _605  and  _608
REMARK  251  A    between atoms: _608  and  _609
REMARK  252  A    between atoms: _612  and  _614
REMARK  253  A    between atoms: _614  and  _615
REMARK  254  A    between atoms: _614  and  _617
REMARK  255  A    between atoms: _617  and  _618
REMARK  256  A    between atoms: _618  and  _619
REMARK  257  A    between atoms: _622  and  _624
REMARK  258  A    between atoms: _624  and  _625
REMARK  259  A    between atoms: _624  and  _627
REMARK  260  A    between atoms: _627  and  _628
REMARK  261  A    between atoms: _631  and  _633
REMARK  262  A    between atoms: _633  and  _634
REMARK  263  A    between atoms: _633  and  _636
REMARK  264  A    between atoms: _636  and  _637
REMARK  265  A    between atoms: _640  and  _642
REMARK  266  A    between atoms: _642  and  _643
REMARK  267  A    between atoms: _642  and  _645
REMARK  268  A    between atoms: _645  and  _646
REMARK  269  A    between atoms: _646  and  _647
REMARK  270  A    between atoms: _647  and  _648
REMARK  271  A    between atoms: _657  and  _659
REMARK  272  A    between atoms: _659  and  _660
REMARK  273  A    between atoms: _659  and  _662
REMARK  274  A    between atoms: _665  and  _667
REMARK  275  A    between atoms: _667  and  _668
REMARK  276  A    between atoms: _667  and  _670
REMARK  277  A    between atoms: _670  and  _671
REMARK  278  A    between atoms: _677  and  _679
REMARK  279  A    between atoms: _679  and  _680
REMARK  280  A    between atoms: _679  and  _682
REMARK  281  A    between atoms: _685  and  _687
REMARK  282  A    between atoms: _687  and  _688
REMARK  283  A    between atoms: _687  and  _690
REMARK  284  A    between atoms: _690  and  _691
REMARK  285  A    between atoms: _691  and  _692
REMARK  286  A    between atoms: _692  and  _693
REMARK  287  A    between atoms: _693  and  _694
REMARK                            x       y       z     vdW  Elec       q    Type
REMARK                         _______ _______ _______ _____ _____    ______ ____
ROOT
ATOM      1  CA  LEU A   2      19.022 -13.673   2.645  0.00  0.00    +0.149 C 
ENDROOT
BRANCH   1   3
ATOM      2  C   SER A   1      18.635 -14.356   0.321  0.00  0.00    +0.241 C 
ATOM      3  N   LEU A   2      19.091 -14.644   1.542  0.00  0.00    -0.297 N 
ATOM      4  H   LEU A   2      19.507 -15.581   1.718  0.00  0.00    +0.150 HD
ATOM      5  O   SER A   1      17.905 -13.389   0.066  0.00  0.00    -0.274 OA
BRANCH   2   6
ATOM      6  CA  SER A   1      18.996 -15.338  -0.789  0.00  0.00    +0.174 C 
BRANCH   6   7
ATOM      7  N   SER A   1      20.382 -15.781  -0.697  0.00  0.00    -0.236 NA
ATOM      8  H   SER A   1      20.573 -16.766  -0.423  0.00  0.00    +0.142 HD
ENDBRANCH   6   7
BRANCH   6   9
ATOM      9  CB  SER A   1      18.034 -16.533  -0.703  0.00  0.00    +0.163 C 
BRANCH   9  10
ATOM     10  OG  SER A   1      18.324 -17.466  -1.719  0.00  0.00    -0.380 OA
ATOM     11  H   SER A   1      19.254 -17.790  -1.613  0.00  0.00    +0.211 HD
ENDBRANCH   9  10
ENDBRANCH   6   9
ENDBRANCH   2   6
ENDBRANCH   1   3
BRANCH   1  12
ATOM     12  C   LEU A   2      19.698 -12.351   2.303  0.00  0.00    +0.241 C 
ATOM     13  O   LEU A   2      19.185 -11.283   2.654  0.00  0.00    -0.273 OA
ATOM     14  N   GLN A   3      20.852 -12.418   1.645  0.00  0.00    -0.298 N 
ATOM     15  H   GLN A   3      21.295 -13.344   1.479  0.00  0.00    +0.150 HD
BRANCH  14  16
ATOM     16  CA  GLN A   3      21.505 -11.208   1.153  0.00  0.00    +0.137 C 
BRANCH  16  17
ATOM     17  C   GLN A   3      20.620 -10.460   0.158  0.00  0.00    +0.227 C 
ATOM     18  O   GLN A   3      20.529  -9.233   0.206  0.00  0.00    -0.286 OA
ENDBRANCH  16  17
BRANCH  16  19
ATOM     19  CB  GLN A   3      22.870 -11.485   0.516  0.00  0.00    +0.037 C 
BRANCH  19  20
ATOM     20  CG  GLN A   3      23.679 -10.204   0.210  0.00  0.00    +0.087 C 
BRANCH  20  21
ATOM     21  CD  GLN A   3      23.909  -9.334   1.454  0.00  0.00    +0.219 C 
ATOM     22  OE1 GLN A   3      24.134  -9.840   2.549  0.00  0.00    -0.275 OA
ATOM     23  NE2 GLN A   3      23.835  -8.029   1.291  0.00  0.00    -0.329 N 
ATOM     24 HE21 GLN A   3      23.969  -7.395   2.104  0.00  0.00    +0.145 HD
ATOM     25 HE22 GLN A   3      23.643  -7.633   0.349  0.00  0.00    +0.145 HD
ENDBRANCH  20  21
ENDBRANCH  19  20
ENDBRANCH  16  19
ENDBRANCH  14  16
ENDBRANCH   1  12
BRANCH   1  26
ATOM     26  CB  LEU A   2      19.593 -14.237   3.951  0.00  0.00    +0.029 C 
BRANCH  26  27
ATOM     27  CG  LEU A   2      18.759 -15.366   4.573  0.00  0.00    +0.002 C 
ATOM     28  CD2 LEU A   2      19.521 -16.085   5.688  0.00  0.00    +0.000 C 
ATOM     29  CD1 LEU A   2      17.416 -14.839   5.073  0.00  0.00    +0.000 C 
ENDBRANCH  26  27
ENDBRANCH   1  26
TORSDOF 13
REMARK  Name = ../refined-set-2016/3vje/3vje_pocket.pdb
REMARK  287 active torsions:
REMARK  status: ('A' for Active; 'I' for Inactive)
REMARK    1  A    between atoms: _1  and  _3
REMARK    2  A    between atoms: _3  and  _4
REMARK    3  A    between atoms: _3  and  _6
REMARK    4  A    between atoms: _6  and  _7
REMARK    5  A    between atoms: _10  and  _12
REMARK    6  A    between atoms: _12  and  _13
REMARK    7  A    between atoms: _12  and  _15
REMARK    8  A    between atoms: _15  and  _16
REMARK    9  A    between atoms: _16  and  _17
REMARK   10  A    between atoms: _19  and  _21
REMARK   11  A    between atoms: _21  and  _22
REMARK   12  A    between atoms: _21  and  _24
REMARK   13  A    between atoms: _24  and  _25
REMARK   14  A    between atoms: _25  and  _26
REMARK   15  A    between atoms: _26  and  _27
REMARK   16  A    between atoms: _27  and  _28
REMARK   17  A    between atoms: _32  and  _34
REMARK   18  A    between atoms: _34  and  _35
REMARK   19  A    between atoms: _34  and  _37
REMARK   20  A    between atoms: _37  and  _38
REMARK   21  A    between atoms: _43  and  _45
REMARK   22  A    between atoms: _45  and  _46
REMARK   23  A    between atoms: _45  and  _48
REMARK   24  A    between atoms: _48  and  _49
REMARK   25  A    between atoms: _51  and  _53
REMARK   26  A    between atoms: _53  and  _54
REMARK   27  A    between atoms: _53  and  _56
REMARK   28  A    between atoms: _56  and  _57
REMARK   29  A    between atoms: _57  and  _58
REMARK   30  A    between atoms: _58  and  _59
REMARK   31  A    between atoms: _59  and  _60
REMARK   32  A    between atoms: _64  and  _66
REMARK   33  A    between atoms: _66  and  _67
REMARK   34  A    between atoms: _66  and  _69
REMARK   35  A    between atoms: _69  and  _70
REMARK   36  A    between atoms: _72  and  _74
REMARK   37  A    between atoms: _74  and  _75
REMARK   38  A    between atoms: _74  and  _77
REMARK   39  A    between atoms: _77  and  _78
REMARK   40  A    between atoms: _84  and  _86
REMARK   41  A    between atoms: _86  and  _87
REMARK   42  A    between atoms: _86  and  _89
REMARK   43  A    between atoms: _89  and  _90
REMARK   44  A    between atoms: _92  and  _94
REMARK   45  A    between atoms: _94  and  _95
REMARK   46  A    between atoms: _94  and  _97
REMARK   47  A    between atoms: _97  and  _98
REMARK   48  A    between atoms: _103  and  _104
REMARK   49  A    between atoms: _106  and  _108
REMARK   50  A    between atoms: _108  and  _109
REMARK   51  A    between atoms: _112  and  _114
REMARK   52  A    between atoms: _114  and  _115
REMARK   53  A    between atoms: _114  and  _117
REMARK   54  A    between atoms: _117  and  _118
REMARK   55  A    between atoms: _124  and  _126
REMARK   56  A    between atoms: _126  and  _127
REMARK   57  A    between atoms: _126  and  _129
REMARK   58  A    between atoms: _129  and  _130
REMARK   59  A    between atoms: _133  and  _135
REMARK   60  A    between atoms: _135  and  _136
REMARK   61  A    between atoms: _135  and  _138
REMARK   62  A    between atoms: _138  and  _139
REMARK   63  A    between atoms: _142  and  _144
REMARK   64  A    between atoms: _144  and  _145
REMARK   65  A    between atoms: _148  and  _150
REMARK   66  A    between atoms: _150  and  _151
REMARK   67  A    between atoms: _150  and  _153
REMARK   68  A    between atoms: _156  and  _158
REMARK   69  A    between atoms: _158  and  _159
REMARK   70  A    between atoms: _158  and  _161
REMARK   71  A    between atoms: _161  and  _162
REMARK   72  A    between atoms: _172  and  _174
REMARK   73  A    between atoms: _174  and  _175
REMARK   74  A    between atoms: _178  and  _180
REMARK   75  A    between atoms: _180  and  _181
REMARK   76  A    between atoms: _180  and  _183
REMARK   77  A    between atoms: _183  and  _184
REMARK   78  A    between atoms: _187  and  _189
REMARK   79  A    between atoms: _189  and  _190
REMARK   80  A    between atoms: _189  and  _192
REMARK   81  A    between atoms: _192  and  _193
REMARK   82  A    between atoms: _198  and  _199
REMARK   83  A    between atoms: _201  and  _203
REMARK   84  A    between atoms: _203  and  _204
REMARK   85  A    between atoms: _207  and  _209
REMARK   86  A    between atoms: _209  and  _210
REMARK   87  A    between atoms: _209  and  _212
REMARK   88  A    between atoms: _215  and  _217
REMARK   89  A    between atoms: _217  and  _218
REMARK   90  A    between atoms: _217  and  _220
REMARK   91  A    between atoms: _222  and  _224
REMARK   92  A    between atoms: _224  and  _225
REMARK   93  A    between atoms: _224  and  _227
REMARK   94  A    between atoms: _227  and  _228
REMARK   95  A    between atoms: _228  and  _229
REMARK   96  A    between atoms: _229  and  _230
REMARK   97  A    between atoms: _239  and  _241
REMARK   98  A    between atoms: _241  and  _242
REMARK   99  A    between atoms: _241  and  _244
REMARK  100  A    between atoms: _244  and  _245
REMARK  101  A    between atoms: _245  and  _246
REMARK  102  A    between atoms: _246  and  _247
REMARK  103  A    between atoms: _247  and  _248
REMARK  104  A    between atoms: _252  and  _254
REMARK  105  A    between atoms: _254  and  _255
REMARK  106  A    between atoms: _254  and  _257
REMARK  107  A    between atoms: _257  and  _258
REMARK  108  A    between atoms: _261  and  _263
REMARK  109  A    between atoms: _263  and  _264
REMARK  110  A    between atoms: _263  and  _266
REMARK  111  A    between atoms: _266  and  _267
REMARK  112  A    between atoms: _270  and  _272
REMARK  113  A    between atoms: _272  and  _273
REMARK  114  A    between atoms: _272  and  _275
REMARK  115  A    between atoms: _275  and  _276
REMARK  116  A    between atoms: _279  and  _281
REMARK  117  A    between atoms: _281  and  _282
REMARK  118  A    between atoms: _281  and  _284
REMARK  119  A    between atoms: _284  and  _285
REMARK  120  A    between atoms: _291  and  _293
REMARK  121  A    between atoms: _293  and  _294
REMARK  122  A    between atoms: _293  and  _296
REMARK  123  A    between atoms: _296  and  _297
REMARK  124  A    between atoms: _300  and  _302
REMARK  125  A    between atoms: _302  and  _303
REMARK  126  A    between atoms: _302  and  _305
REMARK  127  A    between atoms: _305  and  _306
REMARK  128  A    between atoms: _309  and  _311
REMARK  129  A    between atoms: _311  and  _312
REMARK  130  A    between atoms: _311  and  _314
REMARK  131  A    between atoms: _314  and  _315
REMARK  132  A    between atoms: _318  and  _320
REMARK  133  A    between atoms: _320  and  _321
REMARK  134  A    between atoms: _320  and  _323
REMARK  135  A    between atoms: _326  and  _328
REMARK  136  A    between atoms: _328  and  _329
REMARK  137  A    between atoms: _328  and  _331
REMARK  138  A    between atoms: _331  and  _332
REMARK  139  A    between atoms: _337  and  _338
REMARK  140  A    between atoms: _340  and  _342
REMARK  141  A    between atoms: _342  and  _343
REMARK  142  A    between atoms: _345  and  _347
REMARK  143  A    between atoms: _347  and  _348
REMARK  144  A    between atoms: _347  and  _350
REMARK  145  A    between atoms: _353  and  _355
REMARK  146  A    between atoms: _355  and  _356
REMARK  147  A    between atoms: _359  and  _361
REMARK  148  A    between atoms: _361  and  _362
REMARK  149  A    between atoms: _361  and  _364
REMARK  150  A    between atoms: _364  and  _365
REMARK  151  A    between atoms: _368  and  _370
REMARK  152  A    between atoms: _370  and  _371
REMARK  153  A    between atoms: _370  and  _373
REMARK  154  A    between atoms: _376  and  _378
REMARK  155  A    between atoms: _378  and  _379
REMARK  156  A    between atoms: _381  and  _383
REMARK  157  A    between atoms: _383  and  _384
REMARK  158  A    between atoms: _383  and  _386
REMARK  159  A    between atoms: _389  and  _391
REMARK  160  A    between atoms: _391  and  _392
REMARK  161  A    between atoms: _391  and  _394
REMARK  162  A    between atoms: _394  and  _395
REMARK  163  A    between atoms: _398  and  _400
REMARK  164  A    between atoms: _400  and  _401
REMARK  165  A    between atoms: _400  and  _403
REMARK  166  A    between atoms: _403  and  _404
REMARK  167  A    between atoms: _407  and  _409
REMARK  168  A    between atoms: _409  and  _410
REMARK  169  A    between atoms: _409  and  _412
REMARK  170  A    between atoms: _412  and  _413
REMARK  171  A    between atoms: _416  and  _418
REMARK  172  A    between atoms: _418  and  _419
REMARK  173  A    between atoms: _418  and  _421
REMARK  174  A    between atoms: _421  and  _422
REMARK  175  A    between atoms: _424  and  _426
REMARK  176  A    between atoms: _426  and  _427
REMARK  177  A    between atoms: _426  and  _429
REMARK  178  A    between atoms: _429  and  _430
REMARK  179  A    between atoms: _433  and  _435
REMARK  180  A    between atoms: _435  and  _436
REMARK  181  A    between atoms: _435  and  _438
REMARK  182  A    between atoms: _438  and  _439
REMARK  183  A    between atoms: _439  and  _440
REMARK  184  A    between atoms: _445  and  _447
REMARK  185  A    between atoms: _447  and  _448
REMARK  186  A    between atoms: _447  and  _450
REMARK  187  A    between atoms: _450  and  _451
REMARK  188  A    between atoms: _454  and  _456
REMARK  189  A    between atoms: _456  and  _457
REMARK  190  A    between atoms: _456  and  _459
REMARK  191  A    between atoms: _459  and  _460
REMARK  192  A    between atoms: _465  and  _467
REMARK  193  A    between atoms: _467  and  _468
REMARK  194  A    between atoms: _467  and  _470
REMARK  195  A    between atoms: _470  and  _471
REMARK  196  A    between atoms: _474  and  _476
REMARK  197  A    between atoms: _476  and  _477
REMARK  198  A    between atoms: _476  and  _479
REMARK  199  A    between atoms: _479  and  _480
REMARK  200  A    between atoms: _480  and  _481
REMARK  201  A    between atoms: _481  and  _482
REMARK  202  A    between atoms: _491  and  _493
REMARK  203  A    between atoms: _493  and  _494
REMARK  204  A    between atoms: _493  and  _496
REMARK  205  A    between atoms: _496  and  _497
REMARK  206  A    between atoms: _500  and  _502
REMARK  207  A    between atoms: _502  and  _503
REMARK  208  A    between atoms: _502  and  _505
REMARK  209  A    between atoms: _505  and  _506
REMARK  210  A    between atoms: _506  and  _507
REMARK  211  A    between atoms: _510  and  _512
REMARK  212  A    between atoms: _512  and  _513
REMARK  213  A    between atoms: _512  and  _515
REMARK  214  A    between atoms: _515  and  _516
REMARK  215  A    between atoms: _522  and  _524
REMARK  216  A    between atoms: _524  and  _525
REMARK  217  A    between atoms: _524  and  _527
REMARK  218  A    between atoms: _527  and  _528
REMARK  219  A    between atoms: _531  and  _533
REMARK  220  A    between atoms: _533  and  _534
REMARK  221  A    between atoms: _533  and  _536
REMARK  222  A    between atoms: _536  and  _537
REMARK  223  A    between atoms: _540  and  _542
REMARK  224  A    between atoms: _542  and  _543
REMARK  225  A    between atoms: _542  and  _545
REMARK  226  A    between atoms: _545  and  _546
REMARK  227  A    between atoms: _546  and  _547
REMARK  228  A    between atoms: _550  and  _552
REMARK  229  A    between atoms: _552  and  _553
REMARK  230  A    between atoms: _552  and  _555
REMARK  231  A    between atoms: _555  and  _556
REMARK  232  A    between atoms: _559  and  _561
REMARK  233  A    between atoms: _561  and  _562
REMARK  234  A    between atoms: _565  and  _567
REMARK  235  A    between atoms: _567  and  _568
REMARK  236  A    between atoms: _571  and  _573
REMARK  237  A    between atoms: _573  and  _574
REMARK  238  A    between atoms: _573  and  _576
REMARK  239  A    between atoms: _576  and  _577
REMARK  240  A    between atoms: _577  and  _578
REMARK  241  A    between atoms: _578  and  _579
REMARK  242  A    between atoms: _588  and  _590
REMARK  243  A    between atoms: _590  and  _591
REMARK  244  A    between atoms: _590  and  _593
REMARK  245  A    between atoms: _593  and  _594
REMARK  246  A    between atoms: _597  and  _599
REMARK  247  A    between atoms: _599  and  _600
REMARK  248  A    between atoms: _603  and  _605
REMARK  249  A    between atoms: _605  and  _606
REMARK  250  A    between atoms: _605  and  _608
REMARK  251  A    between atoms: _608  and  _609
REMARK  252  A    between atoms: _612  and  _614
REMARK  253  A    between atoms: _614  and  _615
REMARK  254  A    between atoms: _614  and  _617
REMARK  255  A    between atoms: _617  and  _618
REMARK  256  A    between atoms: _618  and  _619
REMARK  257  A    between atoms: _622  and  _624
REMARK  258  A    between atoms: _624  and  _625
REMARK  259  A    between atoms: _624  and  _627
REMARK  260  A    between atoms: _627  and  _628
REMARK  261  A    between atoms: _631  and  _633
REMARK  262  A    between atoms: _633  and  _634
REMARK  263  A    between atoms: _633  and  _636
REMARK  264  A    between atoms: _636  and  _637
REMARK  265  A    between atoms: _640  and  _642
REMARK  266  A    between atoms: _642  and  _643
REMARK  267  A    between atoms: _642  and  _645
REMARK  268  A    between atoms: _645  and  _646
REMARK  269  A    between atoms: _646  and  _647
REMARK  270  A    between atoms: _647  and  _648
REMARK  271  A    between atoms: _657  and  _659
REMARK  272  A    between atoms: _659  and  _660
REMARK  273  A    between atoms: _659  and  _662
REMARK  274  A    between atoms: _665  and  _667
REMARK  275  A    between atoms: _667  and  _668
REMARK  276  A    between atoms: _667  and  _670
REMARK  277  A    between atoms: _670  and  _671
REMARK  278  A    between atoms: _677  and  _679
REMARK  279  A    between atoms: _679  and  _680
REMARK  280  A    between atoms: _679  and  _682
REMARK  281  A    between atoms: _685  and  _687
REMARK  282  A    between atoms: _687  and  _688
REMARK  283  A    between atoms: _687  and  _690
REMARK  284  A    between atoms: _690  and  _691
REMARK  285  A    between atoms: _691  and  _692
REMARK  286  A    between atoms: _692  and  _693
REMARK  287  A    between atoms: _693  and  _694
REMARK                            x       y       z     vdW  Elec       q    Type
REMARK                         _______ _______ _______ _____ _____    ______ ____
ROOT
ATOM      1  CA  ASN A   2      18.463  -7.501   2.641  0.00  0.00    +0.158 C 
ENDROOT
BRANCH   1   3
ATOM      2  C   ILE A   1      16.616  -8.606   1.461  0.00  0.00    +0.238 C 
ATOM      3  N   ASN A   2      17.820  -8.652   2.015  0.00  0.00    -0.297 N 
ATOM      4  H   ASN A   2      18.333  -9.556   2.003  0.00  0.00    +0.150 HD
ATOM      5  O   ILE A   1      15.880  -7.615   1.498  0.00  0.00    -0.274 OA
BRANCH   2   6
ATOM      6  CA  ILE A   1      16.184  -9.898   0.794  0.00  0.00    +0.145 C 
BRANCH   6   7
ATOM      7  N   ILE A   1      17.317 -10.460   0.044  0.00  0.00    -0.238 NA
ATOM      8  H   ILE A   1      17.725 -11.359   0.369  0.00  0.00    +0.142 HD
ENDBRANCH   6   7
BRANCH   6   9
ATOM      9  CB  ILE A   1      15.730 -10.839   1.929  0.00  0.00    +0.025 C 
ATOM     10  CG2 ILE A   1      14.706 -10.161   2.843  0.00  0.00    +0.002 C 
BRANCH   9  11
ATOM     11  CG1 ILE A   1      15.218 -12.178   1.388  0.00  0.00    +0.002 C 
ATOM     12  CD1 ILE A   1      14.076 -12.095   0.373  0.00  0.00    +0.000 C 
ENDBRANCH   9  11
ENDBRANCH   6   9
ENDBRANCH   2   6
ENDBRANCH   1   3
BRANCH   1  13
ATOM     13  C   ASN A   2      18.574  -6.332   1.662  0.00  0.00    +0.241 C 
ATOM     14  O   ASN A   2      18.197  -5.212   1.985  0.00  0.00    -0.273 OA
ATOM     15  N   ILE A   3      19.074  -6.607   0.464  0.00  0.00    -0.298 N 
ATOM     16  H   ILE A   3      19.461  -7.559   0.302  0.00  0.00    +0.150 HD
BRANCH  15  17
ATOM     17  CA  ILE A   3      19.113  -5.648  -0.645  0.00  0.00    +0.137 C 
BRANCH  17  18
ATOM     18  C   ILE A   3      17.723  -5.093  -0.955  0.00  0.00    +0.227 C 
ATOM     19  O   ILE A   3      17.544  -3.875  -1.044  0.00  0.00    -0.286 OA
ENDBRANCH  17  18
BRANCH  17  20
ATOM     20  CB  ILE A   3      19.787  -6.287  -1.893  0.00  0.00    +0.026 C 
ATOM     21  CG2 ILE A   3      19.524  -5.509  -3.190  0.00  0.00    +0.002 C 
BRANCH  20  22
ATOM     22  CG1 ILE A   3      21.305  -6.375  -1.667  0.00  0.00    +0.002 C 
ATOM     23  CD1 ILE A   3      22.006  -7.401  -2.537  0.00  0.00    +0.000 C 
ENDBRANCH  20  22
ENDBRANCH  17  20
ENDBRANCH  15  17
ENDBRANCH   1  13
BRANCH   1  24
ATOM     24  CB  ASN A   2      19.843  -7.938   3.145  0.00  0.00    +0.114 C 
BRANCH  24  25
ATOM     25  CG  ASN A   2      20.407  -7.029   4.208  0.00  0.00    +0.222 C 
ATOM     26  ND2 ASN A   2      21.392  -7.533   4.948  0.00  0.00    -0.329 N 
ATOM     27 HD21 ASN A   2      21.835  -6.953   5.689  0.00  0.00    +0.145 HD
ATOM     28 HD22 ASN A   2      21.718  -8.507   4.786  0.00  0.00    +0.145 HD
ATOM     29  OD1 ASN A   2      19.986  -5.884   4.361  0.00  0.00    -0.275 OA
ENDBRANCH  24  25
ENDBRANCH   1  24
TORSDOF 12
REMARK  Name = ../refined-set-2016/3vje/3vje_pocket.pdb
REMARK  287 active torsions:
REMARK  status: ('A' for Active; 'I' for Inactive)
REMARK    1  A    between atoms: _1  and  _3
REMARK    2  A    between atoms: _3  and  _4
REMARK    3  A    between atoms: _3  and  _6
REMARK    4  A    between atoms: _6  and  _7
REMARK    5  A    between atoms: _10  and  _12
REMARK    6  A    between atoms: _12  and  _13
REMARK    7  A    between atoms: _12  and  _15
REMARK    8  A    between atoms: _15  and  _16
REMARK    9  A    between atoms: _16  and  _17
REMARK   10  A    between atoms: _19  and  _21
REMARK   11  A    between atoms: _21  and  _22
REMARK   12  A    between atoms: _21  and  _24
REMARK   13  A    between atoms: _24  and  _25
REMARK   14  A    between atoms: _25  and  _26
REMARK   15  A    between atoms: _26  and  _27
REMARK   16  A    between atoms: _27  and  _28
REMARK   17  A    between atoms: _32  and  _34
REMARK   18  A    between atoms: _34  and  _35
REMARK   19  A    between atoms: _34  and  _37
REMARK   20  A    between atoms: _37  and  _38
REMARK   21  A    between atoms: _43  and  _45
REMARK   22  A    between atoms: _45  and  _46
REMARK   23  A    between atoms: _45  and  _48
REMARK   24  A    between atoms: _48  and  _49
REMARK   25  A    between atoms: _51  and  _53
REMARK   26  A    between atoms: _53  and  _54
REMARK   27  A    between atoms: _53  and  _56
REMARK   28  A    between atoms: _56  and  _57
REMARK   29  A    between atoms: _57  and  _58
REMARK   30  A    between atoms: _58  and  _59
REMARK   31  A    between atoms: _59  and  _60
REMARK   32  A    between atoms: _64  and  _66
REMARK   33  A    between atoms: _66  and  _67
REMARK   34  A    between atoms: _66  and  _69
REMARK   35  A    between atoms: _69  and  _70
REMARK   36  A    between atoms: _72  and  _74
REMARK   37  A    between atoms: _74  and  _75
REMARK   38  A    between atoms: _74  and  _77
REMARK   39  A    between atoms: _77  and  _78
REMARK   40  A    between atoms: _84  and  _86
REMARK   41  A    between atoms: _86  and  _87
REMARK   42  A    between atoms: _86  and  _89
REMARK   43  A    between atoms: _89  and  _90
REMARK   44  A    between atoms: _92  and  _94
REMARK   45  A    between atoms: _94  and  _95
REMARK   46  A    between atoms: _94  and  _97
REMARK   47  A    between atoms: _97  and  _98
REMARK   48  A    between atoms: _103  and  _104
REMARK   49  A    between atoms: _106  and  _108
REMARK   50  A    between atoms: _108  and  _109
REMARK   51  A    between atoms: _112  and  _114
REMARK   52  A    between atoms: _114  and  _115
REMARK   53  A    between atoms: _114  and  _117
REMARK   54  A    between atoms: _117  and  _118
REMARK   55  A    between atoms: _124  and  _126
REMARK   56  A    between atoms: _126  and  _127
REMARK   57  A    between atoms: _126  and  _129
REMARK   58  A    between atoms: _129  and  _130
REMARK   59  A    between atoms: _133  and  _135
REMARK   60  A    between atoms: _135  and  _136
REMARK   61  A    between atoms: _135  and  _138
REMARK   62  A    between atoms: _138  and  _139
REMARK   63  A    between atoms: _142  and  _144
REMARK   64  A    between atoms: _144  and  _145
REMARK   65  A    between atoms: _148  and  _150
REMARK   66  A    between atoms: _150  and  _151
REMARK   67  A    between atoms: _150  and  _153
REMARK   68  A    between atoms: _156  and  _158
REMARK   69  A    between atoms: _158  and  _159
REMARK   70  A    between atoms: _158  and  _161
REMARK   71  A    between atoms: _161  and  _162
REMARK   72  A    between atoms: _172  and  _174
REMARK   73  A    between atoms: _174  and  _175
REMARK   74  A    between atoms: _178  and  _180
REMARK   75  A    between atoms: _180  and  _181
REMARK   76  A    between atoms: _180  and  _183
REMARK   77  A    between atoms: _183  and  _184
REMARK   78  A    between atoms: _187  and  _189
REMARK   79  A    between atoms: _189  and  _190
REMARK   80  A    between atoms: _189  and  _192
REMARK   81  A    between atoms: _192  and  _193
REMARK   82  A    between atoms: _198  and  _199
REMARK   83  A    between atoms: _201  and  _203
REMARK   84  A    between atoms: _203  and  _204
REMARK   85  A    between atoms: _207  and  _209
REMARK   86  A    between atoms: _209  and  _210
REMARK   87  A    between atoms: _209  and  _212
REMARK   88  A    between atoms: _215  and  _217
REMARK   89  A    between atoms: _217  and  _218
REMARK   90  A    between atoms: _217  and  _220
REMARK   91  A    between atoms: _222  and  _224
REMARK   92  A    between atoms: _224  and  _225
REMARK   93  A    between atoms: _224  and  _227
REMARK   94  A    between atoms: _227  and  _228
REMARK   95  A    between atoms: _228  and  _229
REMARK   96  A    between atoms: _229  and  _230
REMARK   97  A    between atoms: _239  and  _241
REMARK   98  A    between atoms: _241  and  _242
REMARK   99  A    between atoms: _241  and  _244
REMARK  100  A    between atoms: _244  and  _245
REMARK  101  A    between atoms: _245  and  _246
REMARK  102  A    between atoms: _246  and  _247
REMARK  103  A    between atoms: _247  and  _248
REMARK  104  A    between atoms: _252  and  _254
REMARK  105  A    between atoms: _254  and  _255
REMARK  106  A    between atoms: _254  and  _257
REMARK  107  A    between atoms: _257  and  _258
REMARK  108  A    between atoms: _261  and  _263
REMARK  109  A    between atoms: _263  and  _264
REMARK  110  A    between atoms: _263  and  _266
REMARK  111  A    between atoms: _266  and  _267
REMARK  112  A    between atoms: _270  and  _272
REMARK  113  A    between atoms: _272  and  _273
REMARK  114  A    between atoms: _272  and  _275
REMARK  115  A    between atoms: _275  and  _276
REMARK  116  A    between atoms: _279  and  _281
REMARK  117  A    between atoms: _281  and  _282
REMARK  118  A    between atoms: _281  and  _284
REMARK  119  A    between atoms: _284  and  _285
REMARK  120  A    between atoms: _291  and  _293
REMARK  121  A    between atoms: _293  and  _294
REMARK  122  A    between atoms: _293  and  _296
REMARK  123  A    between atoms: _296  and  _297
REMARK  124  A    between atoms: _300  and  _302
REMARK  125  A    between atoms: _302  and  _303
REMARK  126  A    between atoms: _302  and  _305
REMARK  127  A    between atoms: _305  and  _306
REMARK  128  A    between atoms: _309  and  _311
REMARK  129  A    between atoms: _311  and  _312
REMARK  130  A    between atoms: _311  and  _314
REMARK  131  A    between atoms: _314  and  _315
REMARK  132  A    between atoms: _318  and  _320
REMARK  133  A    between atoms: _320  and  _321
REMARK  134  A    between atoms: _320  and  _323
REMARK  135  A    between atoms: _326  and  _328
REMARK  136  A    between atoms: _328  and  _329
REMARK  137  A    between atoms: _328  and  _331
REMARK  138  A    between atoms: _331  and  _332
REMARK  139  A    between atoms: _337  and  _338
REMARK  140  A    between atoms: _340  and  _342
REMARK  141  A    between atoms: _342  and  _343
REMARK  142  A    between atoms: _345  and  _347
REMARK  143  A    between atoms: _347  and  _348
REMARK  144  A    between atoms: _347  and  _350
REMARK  145  A    between atoms: _353  and  _355
REMARK  146  A    between atoms: _355  and  _356
REMARK  147  A    between atoms: _359  and  _361
REMARK  148  A    between atoms: _361  and  _362
REMARK  149  A    between atoms: _361  and  _364
REMARK  150  A    between atoms: _364  and  _365
REMARK  151  A    between atoms: _368  and  _370
REMARK  152  A    between atoms: _370  and  _371
REMARK  153  A    between atoms: _370  and  _373
REMARK  154  A    between atoms: _376  and  _378
REMARK  155  A    between atoms: _378  and  _379
REMARK  156  A    between atoms: _381  and  _383
REMARK  157  A    between atoms: _383  and  _384
REMARK  158  A    between atoms: _383  and  _386
REMARK  159  A    between atoms: _389  and  _391
REMARK  160  A    between atoms: _391  and  _392
REMARK  161  A    between atoms: _391  and  _394
REMARK  162  A    between atoms: _394  and  _395
REMARK  163  A    between atoms: _398  and  _400
REMARK  164  A    between atoms: _400  and  _401
REMARK  165  A    between atoms: _400  and  _403
REMARK  166  A    between atoms: _403  and  _404
REMARK  167  A    between atoms: _407  and  _409
REMARK  168  A    between atoms: _409  and  _410
REMARK  169  A    between atoms: _409  and  _412
REMARK  170  A    between atoms: _412  and  _413
REMARK  171  A    between atoms: _416  and  _418
REMARK  172  A    between atoms: _418  and  _419
REMARK  173  A    between atoms: _418  and  _421
REMARK  174  A    between atoms: _421  and  _422
REMARK  175  A    between atoms: _424  and  _426
REMARK  176  A    between atoms: _426  and  _427
REMARK  177  A    between atoms: _426  and  _429
REMARK  178  A    between atoms: _429  and  _430
REMARK  179  A    between atoms: _433  and  _435
REMARK  180  A    between atoms: _435  and  _436
REMARK  181  A    between atoms: _435  and  _438
REMARK  182  A    between atoms: _438  and  _439
REMARK  183  A    between atoms: _439  and  _440
REMARK  184  A    between atoms: _445  and  _447
REMARK  185  A    between atoms: _447  and  _448
REMARK  186  A    between atoms: _447  and  _450
REMARK  187  A    between atoms: _450  and  _451
REMARK  188  A    between atoms: _454  and  _456
REMARK  189  A    between atoms: _456  and  _457
REMARK  190  A    between atoms: _456  and  _459
REMARK  191  A    between atoms: _459  and  _460
REMARK  192  A    between atoms: _465  and  _467
REMARK  193  A    between atoms: _467  and  _468
REMARK  194  A    between atoms: _467  and  _470
REMARK  195  A    between atoms: _470  and  _471
REMARK  196  A    between atoms: _474  and  _476
REMARK  197  A    between atoms: _476  and  _477
REMARK  198  A    between atoms: _476  and  _479
REMARK  199  A    between atoms: _479  and  _480
REMARK  200  A    between atoms: _480  and  _481
REMARK  201  A    between atoms: _481  and  _482
REMARK  202  A    between atoms: _491  and  _493
REMARK  203  A    between atoms: _493  and  _494
REMARK  204  A    between atoms: _493  and  _496
REMARK  205  A    between atoms: _496  and  _497
REMARK  206  A    between atoms: _500  and  _502
REMARK  207  A    between atoms: _502  and  _503
REMARK  208  A    between atoms: _502  and  _505
REMARK  209  A    between atoms: _505  and  _506
REMARK  210  A    between atoms: _506  and  _507
REMARK  211  A    between atoms: _510  and  _512
REMARK  212  A    between atoms: _512  and  _513
REMARK  213  A    between atoms: _512  and  _515
REMARK  214  A    between atoms: _515  and  _516
REMARK  215  A    between atoms: _522  and  _524
REMARK  216  A    between atoms: _524  and  _525
REMARK  217  A    between atoms: _524  and  _527
REMARK  218  A    between atoms: _527  and  _528
REMARK  219  A    between atoms: _531  and  _533
REMARK  220  A    between atoms: _533  and  _534
REMARK  221  A    between atoms: _533  and  _536
REMARK  222  A    between atoms: _536  and  _537
REMARK  223  A    between atoms: _540  and  _542
REMARK  224  A    between atoms: _542  and  _543
REMARK  225  A    between atoms: _542  and  _545
REMARK  226  A    between atoms: _545  and  _546
REMARK  227  A    between atoms: _546  and  _547
REMARK  228  A    between atoms: _550  and  _552
REMARK  229  A    between atoms: _552  and  _553
REMARK  230  A    between atoms: _552  and  _555
REMARK  231  A    between atoms: _555  and  _556
REMARK  232  A    between atoms: _559  and  _561
REMARK  233  A    between atoms: _561  and  _562
REMARK  234  A    between atoms: _565  and  _567
REMARK  235  A    between atoms: _567  and  _568
REMARK  236  A    between atoms: _571  and  _573
REMARK  237  A    between atoms: _573  and  _574
REMARK  238  A    between atoms: _573  and  _576
REMARK  239  A    between atoms: _576  and  _577
REMARK  240  A    between atoms: _577  and  _578
REMARK  241  A    between atoms: _578  and  _579
REMARK  242  A    between atoms: _588  and  _590
REMARK  243  A    between atoms: _590  and  _591
REMARK  244  A    between atoms: _590  and  _593
REMARK  245  A    between atoms: _593  and  _594
REMARK  246  A    between atoms: _597  and  _599
REMARK  247  A    between atoms: _599  and  _600
REMARK  248  A    between atoms: _603  and  _605
REMARK  249  A    between atoms: _605  and  _606
REMARK  250  A    between atoms: _605  and  _608
REMARK  251  A    between atoms: _608  and  _609
REMARK  252  A    between atoms: _612  and  _614
REMARK  253  A    between atoms: _614  and  _615
REMARK  254  A    between atoms: _614  and  _617
REMARK  255  A    between atoms: _617  and  _618
REMARK  256  A    between atoms: _618  and  _619
REMARK  257  A    between atoms: _622  and  _624
REMARK  258  A    between atoms: _624  and  _625
REMARK  259  A    between atoms: _624  and  _627
REMARK  260  A    between atoms: _627  and  _628
REMARK  261  A    between atoms: _631  and  _633
REMARK  262  A    between atoms: _633  and  _634
REMARK  263  A    between atoms: _633  and  _636
REMARK  264  A    between atoms: _636  and  _637
REMARK  265  A    between atoms: _640  and  _642
REMARK  266  A    between atoms: _642  and  _643
REMARK  267  A    between atoms: _642  and  _645
REMARK  268  A    between atoms: _645  and  _646
REMARK  269  A    between atoms: _646  and  _647
REMARK  270  A    between atoms: _647  and  _648
REMARK  271  A    between atoms: _657  and  _659
REMARK  272  A    between atoms: _659  and  _660
REMARK  273  A    between atoms: _659  and  _662
REMARK  274  A    between atoms: _665  and  _667
REMARK  275  A    between atoms: _667  and  _668
REMARK  276  A    between atoms: _667  and  _670
REMARK  277  A    between atoms: _670  and  _671
REMARK  278  A    between atoms: _677  and  _679
REMARK  279  A    between atoms: _679  and  _680
REMARK  280  A    between atoms: _679  and  _682
REMARK  281  A    between atoms: _685  and  _687
REMARK  282  A    between atoms: _687  and  _688
REMARK  283  A    between atoms: _687  and  _690
REMARK  284  A    between atoms: _690  and  _691
REMARK  285  A    between atoms: _691  and  _692
REMARK  286  A    between atoms: _692  and  _693
REMARK  287  A    between atoms: _693  and  _694
REMARK                            x       y       z     vdW  Elec       q    Type
REMARK                         _______ _______ _______ _____ _____    ______ ____
ROOT
ATOM      1  CA  ARG A   1      14.557  -4.092   2.005  0.00  0.00    +0.145 C 
ENDROOT
BRANCH   1   2
ATOM      2  C   ARG A   1      15.237  -2.732   2.155  0.00  0.00    +0.238 C 
ATOM      3  O   ARG A   1      14.620  -1.762   2.601  0.00  0.00    -0.274 OA
ATOM      4  N   ASP A   2      16.516  -2.668   1.808  0.00  0.00    -0.298 N 
ATOM      5  H   ASP A   2      16.949  -3.445   1.269  0.00  0.00    +0.150 HD
BRANCH   4   6
ATOM      6  CA  ASP A   2      17.312  -1.508   2.183  0.00  0.00    +0.148 C 
BRANCH   6   7
ATOM      7  C   ASP A   2      17.667  -0.553   1.039  0.00  0.00    +0.227 C 
ATOM      8  O   ASP A   2      18.572   0.267   1.198  0.00  0.00    -0.286 OA
ENDBRANCH   6   7
BRANCH   6   9
ATOM      9  CB  ASP A   2      18.591  -1.981   2.877  0.00  0.00    +0.142 C 
BRANCH   9  10
ATOM     10  CG  ASP A   2      18.326  -2.588   4.249  0.00  0.00    +0.367 C 
ATOM     11  OD2 ASP A   2      19.229  -3.251   4.804  0.00  0.00    -0.246 OA
ATOM     12  OD1 ASP A   2      17.212  -2.425   4.783  0.00  0.00    -0.246 OA
ENDBRANCH   9  10
ENDBRANCH   6   9
ENDBRANCH   4   6
ENDBRANCH   1   2
BRANCH   1  13
ATOM     13  N   ARG A   1      15.087  -4.859   0.877  0.00  0.00    -0.238 NA
ATOM     14  H   ARG A   1      15.798  -5.594   1.065  0.00  0.00    +0.142 HD
ENDBRANCH   1  13
BRANCH   1  15
ATOM     15  CB  ARG A   1      14.759  -4.879   3.307  0.00  0.00    +0.030 C 
BRANCH  15  16
ATOM     16  CG  ARG A   1      14.037  -4.301   4.518  0.00  0.00    +0.045 C 
BRANCH  16  17
ATOM     17  CD  ARG A   1      14.432  -5.031   5.787  0.00  0.00    +0.174 C 
BRANCH  17  18
ATOM     18  NE  ARG A   1      15.821  -4.732   6.115  0.00  0.00    -0.265 N 
ATOM     19  CZ  ARG A   1      16.580  -5.456   6.926  0.00  0.00    +0.342 C 
ATOM     20  NH2 ARG A   1      16.098  -6.552   7.502  0.00  0.00    -0.292 N 
ATOM     21 HH21 ARG A   1      16.701  -7.114   8.137  0.00  0.00    +0.255 HD
ATOM     22 HH22 ARG A   1      15.118  -6.848   7.318  0.00  0.00    +0.255 HD
ATOM     23  NH1 ARG A   1      17.829  -5.079   7.153  0.00  0.00    -0.292 N 
ATOM     24 HH11 ARG A   1      18.434  -5.639   7.787  0.00  0.00    +0.255 HD
ATOM     25 HH12 ARG A   1      18.205  -4.223   6.697  0.00  0.00    +0.255 HD
ATOM     26  HE  ARG A   1      16.248  -3.889   5.681  0.00  0.00    +0.259 HD
ENDBRANCH  17  18
ENDBRANCH  16  17
ENDBRANCH  15  16
ENDBRANCH   1  15
TORSDOF 10
REMARK  Name = ../refined-set-2016/3vje/3vje_pocket.pdb
REMARK  287 active torsions:
REMARK  status: ('A' for Active; 'I' for Inactive)
REMARK    1  A    between atoms: _1  and  _3
REMARK    2  A    between atoms: _3  and  _4
REMARK    3  A    between atoms: _3  and  _6
REMARK    4  A    between atoms: _6  and  _7
REMARK    5  A    between atoms: _10  and  _12
REMARK    6  A    between atoms: _12  and  _13
REMARK    7  A    between atoms: _12  and  _15
REMARK    8  A    between atoms: _15  and  _16
REMARK    9  A    between atoms: _16  and  _17
REMARK   10  A    between atoms: _19  and  _21
REMARK   11  A    between atoms: _21  and  _22
REMARK   12  A    between atoms: _21  and  _24
REMARK   13  A    between atoms: _24  and  _25
REMARK   14  A    between atoms: _25  and  _26
REMARK   15  A    between atoms: _26  and  _27
REMARK   16  A    between atoms: _27  and  _28
REMARK   17  A    between atoms: _32  and  _34
REMARK   18  A    between atoms: _34  and  _35
REMARK   19  A    between atoms: _34  and  _37
REMARK   20  A    between atoms: _37  and  _38
REMARK   21  A    between atoms: _43  and  _45
REMARK   22  A    between atoms: _45  and  _46
REMARK   23  A    between atoms: _45  and  _48
REMARK   24  A    between atoms: _48  and  _49
REMARK   25  A    between atoms: _51  and  _53
REMARK   26  A    between atoms: _53  and  _54
REMARK   27  A    between atoms: _53  and  _56
REMARK   28  A    between atoms: _56  and  _57
REMARK   29  A    between atoms: _57  and  _58
REMARK   30  A    between atoms: _58  and  _59
REMARK   31  A    between atoms: _59  and  _60
REMARK   32  A    between atoms: _64  and  _66
REMARK   33  A    between atoms: _66  and  _67
REMARK   34  A    between atoms: _66  and  _69
REMARK   35  A    between atoms: _69  and  _70
REMARK   36  A    between atoms: _72  and  _74
REMARK   37  A    between atoms: _74  and  _75
REMARK   38  A    between atoms: _74  and  _77
REMARK   39  A    between atoms: _77  and  _78
REMARK   40  A    between atoms: _84  and  _86
REMARK   41  A    between atoms: _86  and  _87
REMARK   42  A    between atoms: _86  and  _89
REMARK   43  A    between atoms: _89  and  _90
REMARK   44  A    between atoms: _92  and  _94
REMARK   45  A    between atoms: _94  and  _95
REMARK   46  A    between atoms: _94  and  _97
REMARK   47  A    between atoms: _97  and  _98
REMARK   48  A    between atoms: _103  and  _104
REMARK   49  A    between atoms: _106  and  _108
REMARK   50  A    between atoms: _108  and  _109
REMARK   51  A    between atoms: _112  and  _114
REMARK   52  A    between atoms: _114  and  _115
REMARK   53  A    between atoms: _114  and  _117
REMARK   54  A    between atoms: _117  and  _118
REMARK   55  A    between atoms: _124  and  _126
REMARK   56  A    between atoms: _126  and  _127
REMARK   57  A    between atoms: _126  and  _129
REMARK   58  A    between atoms: _129  and  _130
REMARK   59  A    between atoms: _133  and  _135
REMARK   60  A    between atoms: _135  and  _136
REMARK   61  A    between atoms: _135  and  _138
REMARK   62  A    between atoms: _138  and  _139
REMARK   63  A    between atoms: _142  and  _144
REMARK   64  A    between atoms: _144  and  _145
REMARK   65  A    between atoms: _148  and  _150
REMARK   66  A    between atoms: _150  and  _151
REMARK   67  A    between atoms: _150  and  _153
REMARK   68  A    between atoms: _156  and  _158
REMARK   69  A    between atoms: _158  and  _159
REMARK   70  A    between atoms: _158  and  _161
REMARK   71  A    between atoms: _161  and  _162
REMARK   72  A    between atoms: _172  and  _174
REMARK   73  A    between atoms: _174  and  _175
REMARK   74  A    between atoms: _178  and  _180
REMARK   75  A    between atoms: _180  and  _181
REMARK   76  A    between atoms: _180  and  _183
REMARK   77  A    between atoms: _183  and  _184
REMARK   78  A    between atoms: _187  and  _189
REMARK   79  A    between atoms: _189  and  _190
REMARK   80  A    between atoms: _189  and  _192
REMARK   81  A    between atoms: _192  and  _193
REMARK   82  A    between atoms: _198  and  _199
REMARK   83  A    between atoms: _201  and  _203
REMARK   84  A    between atoms: _203  and  _204
REMARK   85  A    between atoms: _207  and  _209
REMARK   86  A    between atoms: _209  and  _210
REMARK   87  A    between atoms: _209  and  _212
REMARK   88  A    between atoms: _215  and  _217
REMARK   89  A    between atoms: _217  and  _218
REMARK   90  A    between atoms: _217  and  _220
REMARK   91  A    between atoms: _222  and  _224
REMARK   92  A    between atoms: _224  and  _225
REMARK   93  A    between atoms: _224  and  _227
REMARK   94  A    between atoms: _227  and  _228
REMARK   95  A    between atoms: _228  and  _229
REMARK   96  A    between atoms: _229  and  _230
REMARK   97  A    between atoms: _239  and  _241
REMARK   98  A    between atoms: _241  and  _242
REMARK   99  A    between atoms: _241  and  _244
REMARK  100  A    between atoms: _244  and  _245
REMARK  101  A    between atoms: _245  and  _246
REMARK  102  A    between atoms: _246  and  _247
REMARK  103  A    between atoms: _247  and  _248
REMARK  104  A    between atoms: _252  and  _254
REMARK  105  A    between atoms: _254  and  _255
REMARK  106  A    between atoms: _254  and  _257
REMARK  107  A    between atoms: _257  and  _258
REMARK  108  A    between atoms: _261  and  _263
REMARK  109  A    between atoms: _263  and  _264
REMARK  110  A    between atoms: _263  and  _266
REMARK  111  A    between atoms: _266  and  _267
REMARK  112  A    between atoms: _270  and  _272
REMARK  113  A    between atoms: _272  and  _273
REMARK  114  A    between atoms: _272  and  _275
REMARK  115  A    between atoms: _275  and  _276
REMARK  116  A    between atoms: _279  and  _281
REMARK  117  A    between atoms: _281  and  _282
REMARK  118  A    between atoms: _281  and  _284
REMARK  119  A    between atoms: _284  and  _285
REMARK  120  A    between atoms: _291  and  _293
REMARK  121  A    between atoms: _293  and  _294
REMARK  122  A    between atoms: _293  and  _296
REMARK  123  A    between atoms: _296  and  _297
REMARK  124  A    between atoms: _300  and  _302
REMARK  125  A    between atoms: _302  and  _303
REMARK  126  A    between atoms: _302  and  _305
REMARK  127  A    between atoms: _305  and  _306
REMARK  128  A    between atoms: _309  and  _311
REMARK  129  A    between atoms: _311  and  _312
REMARK  130  A    between atoms: _311  and  _314
REMARK  131  A    between atoms: _314  and  _315
REMARK  132  A    between atoms: _318  and  _320
REMARK  133  A    between atoms: _320  and  _321
REMARK  134  A    between atoms: _320  and  _323
REMARK  135  A    between atoms: _326  and  _328
REMARK  136  A    between atoms: _328  and  _329
REMARK  137  A    between atoms: _328  and  _331
REMARK  138  A    between atoms: _331  and  _332
REMARK  139  A    between atoms: _337  and  _338
REMARK  140  A    between atoms: _340  and  _342
REMARK  141  A    between atoms: _342  and  _343
REMARK  142  A    between atoms: _345  and  _347
REMARK  143  A    between atoms: _347  and  _348
REMARK  144  A    between atoms: _347  and  _350
REMARK  145  A    between atoms: _353  and  _355
REMARK  146  A    between atoms: _355  and  _356
REMARK  147  A    between atoms: _359  and  _361
REMARK  148  A    between atoms: _361  and  _362
REMARK  149  A    between atoms: _361  and  _364
REMARK  150  A    between atoms: _364  and  _365
REMARK  151  A    between atoms: _368  and  _370
REMARK  152  A    between atoms: _370  and  _371
REMARK  153  A    between atoms: _370  and  _373
REMARK  154  A    between atoms: _376  and  _378
REMARK  155  A    between atoms: _378  and  _379
REMARK  156  A    between atoms: _381  and  _383
REMARK  157  A    between atoms: _383  and  _384
REMARK  158  A    between atoms: _383  and  _386
REMARK  159  A    between atoms: _389  and  _391
REMARK  160  A    between atoms: _391  and  _392
REMARK  161  A    between atoms: _391  and  _394
REMARK  162  A    between atoms: _394  and  _395
REMARK  163  A    between atoms: _398  and  _400
REMARK  164  A    between atoms: _400  and  _401
REMARK  165  A    between atoms: _400  and  _403
REMARK  166  A    between atoms: _403  and  _404
REMARK  167  A    between atoms: _407  and  _409
REMARK  168  A    between atoms: _409  and  _410
REMARK  169  A    between atoms: _409  and  _412
REMARK  170  A    between atoms: _412  and  _413
REMARK  171  A    between atoms: _416  and  _418
REMARK  172  A    between atoms: _418  and  _419
REMARK  173  A    between atoms: _418  and  _421
REMARK  174  A    between atoms: _421  and  _422
REMARK  175  A    between atoms: _424  and  _426
REMARK  176  A    between atoms: _426  and  _427
REMARK  177  A    between atoms: _426  and  _429
REMARK  178  A    between atoms: _429  and  _430
REMARK  179  A    between atoms: _433  and  _435
REMARK  180  A    between atoms: _435  and  _436
REMARK  181  A    between atoms: _435  and  _438
REMARK  182  A    between atoms: _438  and  _439
REMARK  183  A    between atoms: _439  and  _440
REMARK  184  A    between atoms: _445  and  _447
REMARK  185  A    between atoms: _447  and  _448
REMARK  186  A    between atoms: _447  and  _450
REMARK  187  A    between atoms: _450  and  _451
REMARK  188  A    between atoms: _454  and  _456
REMARK  189  A    between atoms: _456  and  _457
REMARK  190  A    between atoms: _456  and  _459
REMARK  191  A    between atoms: _459  and  _460
REMARK  192  A    between atoms: _465  and  _467
REMARK  193  A    between atoms: _467  and  _468
REMARK  194  A    between atoms: _467  and  _470
REMARK  195  A    between atoms: _470  and  _471
REMARK  196  A    between atoms: _474  and  _476
REMARK  197  A    between atoms: _476  and  _477
REMARK  198  A    between atoms: _476  and  _479
REMARK  199  A    between atoms: _479  and  _480
REMARK  200  A    between atoms: _480  and  _481
REMARK  201  A    between atoms: _481  and  _482
REMARK  202  A    between atoms: _491  and  _493
REMARK  203  A    between atoms: _493  and  _494
REMARK  204  A    between atoms: _493  and  _496
REMARK  205  A    between atoms: _496  and  _497
REMARK  206  A    between atoms: _500  and  _502
REMARK  207  A    between atoms: _502  and  _503
REMARK  208  A    between atoms: _502  and  _505
REMARK  209  A    between atoms: _505  and  _506
REMARK  210  A    between atoms: _506  and  _507
REMARK  211  A    between atoms: _510  and  _512
REMARK  212  A    between atoms: _512  and  _513
REMARK  213  A    between atoms: _512  and  _515
REMARK  214  A    between atoms: _515  and  _516
REMARK  215  A    between atoms: _522  and  _524
REMARK  216  A    between atoms: _524  and  _525
REMARK  217  A    between atoms: _524  and  _527
REMARK  218  A    between atoms: _527  and  _528
REMARK  219  A    between atoms: _531  and  _533
REMARK  220  A    between atoms: _533  and  _534
REMARK  221  A    between atoms: _533  and  _536
REMARK  222  A    between atoms: _536  and  _537
REMARK  223  A    between atoms: _540  and  _542
REMARK  224  A    between atoms: _542  and  _543
REMARK  225  A    between atoms: _542  and  _545
REMARK  226  A    between atoms: _545  and  _546
REMARK  227  A    between atoms: _546  and  _547
REMARK  228  A    between atoms: _550  and  _552
REMARK  229  A    between atoms: _552  and  _553
REMARK  230  A    between atoms: _552  and  _555
REMARK  231  A    between atoms: _555  and  _556
REMARK  232  A    between atoms: _559  and  _561
REMARK  233  A    between atoms: _561  and  _562
REMARK  234  A    between atoms: _565  and  _567
REMARK  235  A    between atoms: _567  and  _568
REMARK  236  A    between atoms: _571  and  _573
REMARK  237  A    between atoms: _573  and  _574
REMARK  238  A    between atoms: _573  and  _576
REMARK  239  A    between atoms: _576  and  _577
REMARK  240  A    between atoms: _577  and  _578
REMARK  241  A    between atoms: _578  and  _579
REMARK  242  A    between atoms: _588  and  _590
REMARK  243  A    between atoms: _590  and  _591
REMARK  244  A    between atoms: _590  and  _593
REMARK  245  A    between atoms: _593  and  _594
REMARK  246  A    between atoms: _597  and  _599
REMARK  247  A    between atoms: _599  and  _600
REMARK  248  A    between atoms: _603  and  _605
REMARK  249  A    between atoms: _605  and  _606
REMARK  250  A    between atoms: _605  and  _608
REMARK  251  A    between atoms: _608  and  _609
REMARK  252  A    between atoms: _612  and  _614
REMARK  253  A    between atoms: _614  and  _615
REMARK  254  A    between atoms: _614  and  _617
REMARK  255  A    between atoms: _617  and  _618
REMARK  256  A    between atoms: _618  and  _619
REMARK  257  A    between atoms: _622  and  _624
REMARK  258  A    between atoms: _624  and  _625
REMARK  259  A    between atoms: _624  and  _627
REMARK  260  A    between atoms: _627  and  _628
REMARK  261  A    between atoms: _631  and  _633
REMARK  262  A    between atoms: _633  and  _634
REMARK  263  A    between atoms: _633  and  _636
REMARK  264  A    between atoms: _636  and  _637
REMARK  265  A    between atoms: _640  and  _642
REMARK  266  A    between atoms: _642  and  _643
REMARK  267  A    between atoms: _642  and  _645
REMARK  268  A    between atoms: _645  and  _646
REMARK  269  A    between atoms: _646  and  _647
REMARK  270  A    between atoms: _647  and  _648
REMARK  271  A    between atoms: _657  and  _659
REMARK  272  A    between atoms: _659  and  _660
REMARK  273  A    between atoms: _659  and  _662
REMARK  274  A    between atoms: _665  and  _667
REMARK  275  A    between atoms: _667  and  _668
REMARK  276  A    between atoms: _667  and  _670
REMARK  277  A    between atoms: _670  and  _671
REMARK  278  A    between atoms: _677  and  _679
REMARK  279  A    between atoms: _679  and  _680
REMARK  280  A    between atoms: _679  and  _682
REMARK  281  A    between atoms: _685  and  _687
REMARK  282  A    between atoms: _687  and  _688
REMARK  283  A    between atoms: _687  and  _690
REMARK  284  A    between atoms: _690  and  _691
REMARK  285  A    between atoms: _691  and  _692
REMARK  286  A    between atoms: _692  and  _693
REMARK  287  A    between atoms: _693  and  _694
REMARK                            x       y       z     vdW  Elec       q    Type
REMARK                         _______ _______ _______ _____ _____    ______ ____
ROOT
ATOM      1  CA  GLU A   1      18.945   3.401   3.012  0.00  0.00    +0.134 C 
ENDROOT
BRANCH   1   2
ATOM      2  N   GLU A   1      17.851   3.276   2.055  0.00  0.00    -0.239 NA
ATOM      3  H   GLU A   1      17.085   2.603   2.263  0.00  0.00    +0.142 HD
ENDBRANCH   1   2
BRANCH   1   4
ATOM      4  C   GLU A   1      20.313   3.229   2.354  0.00  0.00    +0.224 C 
ATOM      5  O   GLU A   1      21.238   3.984   2.645  0.00  0.00    -0.287 OA
ENDBRANCH   1   4
BRANCH   1   6
ATOM      6  CB  GLU A   1      18.769   2.373   4.132  0.00  0.00    +0.037 C 
BRANCH   6   7
ATOM      7  CG  GLU A   1      19.548   2.707   5.382  0.00  0.00    +0.116 C 
BRANCH   7   8
ATOM      8  CD  GLU A   1      19.507   1.592   6.408  0.00  0.00    +0.365 C 
ATOM      9  OE2 GLU A   1      20.599   1.186   6.864  0.00  0.00    -0.246 OA
ATOM     10  OE1 GLU A   1      18.399   1.122   6.748  0.00  0.00    -0.246 OA
ENDBRANCH   7   8
ENDBRANCH   6   7
ENDBRANCH   1   6
TORSDOF 5
REMARK  Name = ../refined-set-2016/3vje/3vje_pocket.pdb
REMARK  287 active torsions:
REMARK  status: ('A' for Active; 'I' for Inactive)
REMARK    1  A    between atoms: _1  and  _3
REMARK    2  A    between atoms: _3  and  _4
REMARK    3  A    between atoms: _3  and  _6
REMARK    4  A    between atoms: _6  and  _7
REMARK    5  A    between atoms: _10  and  _12
REMARK    6  A    between atoms: _12  and  _13
REMARK    7  A    between atoms: _12  and  _15
REMARK    8  A    between atoms: _15  and  _16
REMARK    9  A    between atoms: _16  and  _17
REMARK   10  A    between atoms: _19  and  _21
REMARK   11  A    between atoms: _21  and  _22
REMARK   12  A    between atoms: _21  and  _24
REMARK   13  A    between atoms: _24  and  _25
REMARK   14  A    between atoms: _25  and  _26
REMARK   15  A    between atoms: _26  and  _27
REMARK   16  A    between atoms: _27  and  _28
REMARK   17  A    between atoms: _32  and  _34
REMARK   18  A    between atoms: _34  and  _35
REMARK   19  A    between atoms: _34  and  _37
REMARK   20  A    between atoms: _37  and  _38
REMARK   21  A    between atoms: _43  and  _45
REMARK   22  A    between atoms: _45  and  _46
REMARK   23  A    between atoms: _45  and  _48
REMARK   24  A    between atoms: _48  and  _49
REMARK   25  A    between atoms: _51  and  _53
REMARK   26  A    between atoms: _53  and  _54
REMARK   27  A    between atoms: _53  and  _56
REMARK   28  A    between atoms: _56  and  _57
REMARK   29  A    between atoms: _57  and  _58
REMARK   30  A    between atoms: _58  and  _59
REMARK   31  A    between atoms: _59  and  _60
REMARK   32  A    between atoms: _64  and  _66
REMARK   33  A    between atoms: _66  and  _67
REMARK   34  A    between atoms: _66  and  _69
REMARK   35  A    between atoms: _69  and  _70
REMARK   36  A    between atoms: _72  and  _74
REMARK   37  A    between atoms: _74  and  _75
REMARK   38  A    between atoms: _74  and  _77
REMARK   39  A    between atoms: _77  and  _78
REMARK   40  A    between atoms: _84  and  _86
REMARK   41  A    between atoms: _86  and  _87
REMARK   42  A    between atoms: _86  and  _89
REMARK   43  A    between atoms: _89  and  _90
REMARK   44  A    between atoms: _92  and  _94
REMARK   45  A    between atoms: _94  and  _95
REMARK   46  A    between atoms: _94  and  _97
REMARK   47  A    between atoms: _97  and  _98
REMARK   48  A    between atoms: _103  and  _104
REMARK   49  A    between atoms: _106  and  _108
REMARK   50  A    between atoms: _108  and  _109
REMARK   51  A    between atoms: _112  and  _114
REMARK   52  A    between atoms: _114  and  _115
REMARK   53  A    between atoms: _114  and  _117
REMARK   54  A    between atoms: _117  and  _118
REMARK   55  A    between atoms: _124  and  _126
REMARK   56  A    between atoms: _126  and  _127
REMARK   57  A    between atoms: _126  and  _129
REMARK   58  A    between atoms: _129  and  _130
REMARK   59  A    between atoms: _133  and  _135
REMARK   60  A    between atoms: _135  and  _136
REMARK   61  A    between atoms: _135  and  _138
REMARK   62  A    between atoms: _138  and  _139
REMARK   63  A    between atoms: _142  and  _144
REMARK   64  A    between atoms: _144  and  _145
REMARK   65  A    between atoms: _148  and  _150
REMARK   66  A    between atoms: _150  and  _151
REMARK   67  A    between atoms: _150  and  _153
REMARK   68  A    between atoms: _156  and  _158
REMARK   69  A    between atoms: _158  and  _159
REMARK   70  A    between atoms: _158  and  _161
REMARK   71  A    between atoms: _161  and  _162
REMARK   72  A    between atoms: _172  and  _174
REMARK   73  A    between atoms: _174  and  _175
REMARK   74  A    between atoms: _178  and  _180
REMARK   75  A    between atoms: _180  and  _181
REMARK   76  A    between atoms: _180  and  _183
REMARK   77  A    between atoms: _183  and  _184
REMARK   78  A    between atoms: _187  and  _189
REMARK   79  A    between atoms: _189  and  _190
REMARK   80  A    between atoms: _189  and  _192
REMARK   81  A    between atoms: _192  and  _193
REMARK   82  A    between atoms: _198  and  _199
REMARK   83  A    between atoms: _201  and  _203
REMARK   84  A    between atoms: _203  and  _204
REMARK   85  A    between atoms: _207  and  _209
REMARK   86  A    between atoms: _209  and  _210
REMARK   87  A    between atoms: _209  and  _212
REMARK   88  A    between atoms: _215  and  _217
REMARK   89  A    between atoms: _217  and  _218
REMARK   90  A    between atoms: _217  and  _220
REMARK   91  A    between atoms: _222  and  _224
REMARK   92  A    between atoms: _224  and  _225
REMARK   93  A    between atoms: _224  and  _227
REMARK   94  A    between atoms: _227  and  _228
REMARK   95  A    between atoms: _228  and  _229
REMARK   96  A    between atoms: _229  and  _230
REMARK   97  A    between atoms: _239  and  _241
REMARK   98  A    between atoms: _241  and  _242
REMARK   99  A    between atoms: _241  and  _244
REMARK  100  A    between atoms: _244  and  _245
REMARK  101  A    between atoms: _245  and  _246
REMARK  102  A    between atoms: _246  and  _247
REMARK  103  A    between atoms: _247  and  _248
REMARK  104  A    between atoms: _252  and  _254
REMARK  105  A    between atoms: _254  and  _255
REMARK  106  A    between atoms: _254  and  _257
REMARK  107  A    between atoms: _257  and  _258
REMARK  108  A    between atoms: _261  and  _263
REMARK  109  A    between atoms: _263  and  _264
REMARK  110  A    between atoms: _263  and  _266
REMARK  111  A    between atoms: _266  and  _267
REMARK  112  A    between atoms: _270  and  _272
REMARK  113  A    between atoms: _272  and  _273
REMARK  114  A    between atoms: _272  and  _275
REMARK  115  A    between atoms: _275  and  _276
REMARK  116  A    between atoms: _279  and  _281
REMARK  117  A    between atoms: _281  and  _282
REMARK  118  A    between atoms: _281  and  _284
REMARK  119  A    between atoms: _284  and  _285
REMARK  120  A    between atoms: _291  and  _293
REMARK  121  A    between atoms: _293  and  _294
REMARK  122  A    between atoms: _293  and  _296
REMARK  123  A    between atoms: _296  and  _297
REMARK  124  A    between atoms: _300  and  _302
REMARK  125  A    between atoms: _302  and  _303
REMARK  126  A    between atoms: _302  and  _305
REMARK  127  A    between atoms: _305  and  _306
REMARK  128  A    between atoms: _309  and  _311
REMARK  129  A    between atoms: _311  and  _312
REMARK  130  A    between atoms: _311  and  _314
REMARK  131  A    between atoms: _314  and  _315
REMARK  132  A    between atoms: _318  and  _320
REMARK  133  A    between atoms: _320  and  _321
REMARK  134  A    between atoms: _320  and  _323
REMARK  135  A    between atoms: _326  and  _328
REMARK  136  A    between atoms: _328  and  _329
REMARK  137  A    between atoms: _328  and  _331
REMARK  138  A    between atoms: _331  and  _332
REMARK  139  A    between atoms: _337  and  _338
REMARK  140  A    between atoms: _340  and  _342
REMARK  141  A    between atoms: _342  and  _343
REMARK  142  A    between atoms: _345  and  _347
REMARK  143  A    between atoms: _347  and  _348
REMARK  144  A    between atoms: _347  and  _350
REMARK  145  A    between atoms: _353  and  _355
REMARK  146  A    between atoms: _355  and  _356
REMARK  147  A    between atoms: _359  and  _361
REMARK  148  A    between atoms: _361  and  _362
REMARK  149  A    between atoms: _361  and  _364
REMARK  150  A    between atoms: _364  and  _365
REMARK  151  A    between atoms: _368  and  _370
REMARK  152  A    between atoms: _370  and  _371
REMARK  153  A    between atoms: _370  and  _373
REMARK  154  A    between atoms: _376  and  _378
REMARK  155  A    between atoms: _378  and  _379
REMARK  156  A    between atoms: _381  and  _383
REMARK  157  A    between atoms: _383  and  _384
REMARK  158  A    between atoms: _383  and  _386
REMARK  159  A    between atoms: _389  and  _391
REMARK  160  A    between atoms: _391  and  _392
REMARK  161  A    between atoms: _391  and  _394
REMARK  162  A    between atoms: _394  and  _395
REMARK  163  A    between atoms: _398  and  _400
REMARK  164  A    between atoms: _400  and  _401
REMARK  165  A    between atoms: _400  and  _403
REMARK  166  A    between atoms: _403  and  _404
REMARK  167  A    between atoms: _407  and  _409
REMARK  168  A    between atoms: _409  and  _410
REMARK  169  A    between atoms: _409  and  _412
REMARK  170  A    between atoms: _412  and  _413
REMARK  171  A    between atoms: _416  and  _418
REMARK  172  A    between atoms: _418  and  _419
REMARK  173  A    between atoms: _418  and  _421
REMARK  174  A    between atoms: _421  and  _422
REMARK  175  A    between atoms: _424  and  _426
REMARK  176  A    between atoms: _426  and  _427
REMARK  177  A    between atoms: _426  and  _429
REMARK  178  A    between atoms: _429  and  _430
REMARK  179  A    between atoms: _433  and  _435
REMARK  180  A    between atoms: _435  and  _436
REMARK  181  A    between atoms: _435  and  _438
REMARK  182  A    between atoms: _438  and  _439
REMARK  183  A    between atoms: _439  and  _440
REMARK  184  A    between atoms: _445  and  _447
REMARK  185  A    between atoms: _447  and  _448
REMARK  186  A    between atoms: _447  and  _450
REMARK  187  A    between atoms: _450  and  _451
REMARK  188  A    between atoms: _454  and  _456
REMARK  189  A    between atoms: _456  and  _457
REMARK  190  A    between atoms: _456  and  _459
REMARK  191  A    between atoms: _459  and  _460
REMARK  192  A    between atoms: _465  and  _467
REMARK  193  A    between atoms: _467  and  _468
REMARK  194  A    between atoms: _467  and  _470
REMARK  195  A    between atoms: _470  and  _471
REMARK  196  A    between atoms: _474  and  _476
REMARK  197  A    between atoms: _476  and  _477
REMARK  198  A    between atoms: _476  and  _479
REMARK  199  A    between atoms: _479  and  _480
REMARK  200  A    between atoms: _480  and  _481
REMARK  201  A    between atoms: _481  and  _482
REMARK  202  A    between atoms: _491  and  _493
REMARK  203  A    between atoms: _493  and  _494
REMARK  204  A    between atoms: _493  and  _496
REMARK  205  A    between atoms: _496  and  _497
REMARK  206  A    between atoms: _500  and  _502
REMARK  207  A    between atoms: _502  and  _503
REMARK  208  A    between atoms: _502  and  _505
REMARK  209  A    between atoms: _505  and  _506
REMARK  210  A    between atoms: _506  and  _507
REMARK  211  A    between atoms: _510  and  _512
REMARK  212  A    between atoms: _512  and  _513
REMARK  213  A    between atoms: _512  and  _515
REMARK  214  A    between atoms: _515  and  _516
REMARK  215  A    between atoms: _522  and  _524
REMARK  216  A    between atoms: _524  and  _525
REMARK  217  A    between atoms: _524  and  _527
REMARK  218  A    between atoms: _527  and  _528
REMARK  219  A    between atoms: _531  and  _533
REMARK  220  A    between atoms: _533  and  _534
REMARK  221  A    between atoms: _533  and  _536
REMARK  222  A    between atoms: _536  and  _537
REMARK  223  A    between atoms: _540  and  _542
REMARK  224  A    between atoms: _542  and  _543
REMARK  225  A    between atoms: _542  and  _545
REMARK  226  A    between atoms: _545  and  _546
REMARK  227  A    between atoms: _546  and  _547
REMARK  228  A    between atoms: _550  and  _552
REMARK  229  A    between atoms: _552  and  _553
REMARK  230  A    between atoms: _552  and  _555
REMARK  231  A    between atoms: _555  and  _556
REMARK  232  A    between atoms: _559  and  _561
REMARK  233  A    between atoms: _561  and  _562
REMARK  234  A    between atoms: _565  and  _567
REMARK  235  A    between atoms: _567  and  _568
REMARK  236  A    between atoms: _571  and  _573
REMARK  237  A    between atoms: _573  and  _574
REMARK  238  A    between atoms: _573  and  _576
REMARK  239  A    between atoms: _576  and  _577
REMARK  240  A    between atoms: _577  and  _578
REMARK  241  A    between atoms: _578  and  _579
REMARK  242  A    between atoms: _588  and  _590
REMARK  243  A    between atoms: _590  and  _591
REMARK  244  A    between atoms: _590  and  _593
REMARK  245  A    between atoms: _593  and  _594
REMARK  246  A    between atoms: _597  and  _599
REMARK  247  A    between atoms: _599  and  _600
REMARK  248  A    between atoms: _603  and  _605
REMARK  249  A    between atoms: _605  and  _606
REMARK  250  A    between atoms: _605  and  _608
REMARK  251  A    between atoms: _608  and  _609
REMARK  252  A    between atoms: _612  and  _614
REMARK  253  A    between atoms: _614  and  _615
REMARK  254  A    between atoms: _614  and  _617
REMARK  255  A    between atoms: _617  and  _618
REMARK  256  A    between atoms: _618  and  _619
REMARK  257  A    between atoms: _622  and  _624
REMARK  258  A    between atoms: _624  and  _625
REMARK  259  A    between atoms: _624  and  _627
REMARK  260  A    between atoms: _627  and  _628
REMARK  261  A    between atoms: _631  and  _633
REMARK  262  A    between atoms: _633  and  _634
REMARK  263  A    between atoms: _633  and  _636
REMARK  264  A    between atoms: _636  and  _637
REMARK  265  A    between atoms: _640  and  _642
REMARK  266  A    between atoms: _642  and  _643
REMARK  267  A    between atoms: _642  and  _645
REMARK  268  A    between atoms: _645  and  _646
REMARK  269  A    between atoms: _646  and  _647
REMARK  270  A    between atoms: _647  and  _648
REMARK  271  A    between atoms: _657  and  _659
REMARK  272  A    between atoms: _659  and  _660
REMARK  273  A    between atoms: _659  and  _662
REMARK  274  A    between atoms: _665  and  _667
REMARK  275  A    between atoms: _667  and  _668
REMARK  276  A    between atoms: _667  and  _670
REMARK  277  A    between atoms: _670  and  _671
REMARK  278  A    between atoms: _677  and  _679
REMARK  279  A    between atoms: _679  and  _680
REMARK  280  A    between atoms: _679  and  _682
REMARK  281  A    between atoms: _685  and  _687
REMARK  282  A    between atoms: _687  and  _688
REMARK  283  A    between atoms: _687  and  _690
REMARK  284  A    between atoms: _690  and  _691
REMARK  285  A    between atoms: _691  and  _692
REMARK  286  A    between atoms: _692  and  _693
REMARK  287  A    between atoms: _693  and  _694
REMARK                            x       y       z     vdW  Elec       q    Type
REMARK                         _______ _______ _______ _____ _____    ______ ____
ROOT
ATOM      1  CB  PHE A   1      13.096 -18.739   0.093  0.00  0.00    +0.051 C 
ENDROOT
BRANCH   1   2
ATOM      2  CG  PHE A   1      14.038 -17.809   0.818  0.00  0.00    -0.020 A 
ATOM      3  CD2 PHE A   1      14.789 -18.259   1.891  0.00  0.00    -0.004 A 
ATOM      4  CE2 PHE A   1      15.668 -17.414   2.545  0.00  0.00    -0.000 A 
ATOM      5  CZ  PHE A   1      15.813 -16.101   2.130  0.00  0.00    -0.000 A 
ATOM      6  CE1 PHE A   1      15.070 -15.637   1.066  0.00  0.00    -0.000 A 
ATOM      7  CD1 PHE A   1      14.200 -16.492   0.407  0.00  0.00    -0.004 A 
ENDBRANCH   1   2
BRANCH   1   8
ATOM      8  CA  PHE A   1      13.818 -19.874  -0.653  0.00  0.00    +0.137 C 
BRANCH   8   9
ATOM      9  N   PHE A   1      14.324 -19.434  -1.949  0.00  0.00    -0.239 NA
ATOM     10  H   PHE A   1      14.031 -18.509  -2.324  0.00  0.00    +0.142 HD
ENDBRANCH   8   9
BRANCH   8  11
ATOM     11  C   PHE A   1      12.980 -21.151  -0.752  0.00  0.00    +0.224 C 
ATOM     12  O   PHE A   1      13.178 -22.067   0.049  0.00  0.00    -0.287 OA
ENDBRANCH   8  11
ENDBRANCH   1   8
TORSDOF 4
REMARK  Name = ../refined-set-2016/3vje/3vje_pocket.pdb
REMARK  287 active torsions:
REMARK  status: ('A' for Active; 'I' for Inactive)
REMARK    1  A    between atoms: _1  and  _3
REMARK    2  A    between atoms: _3  and  _4
REMARK    3  A    between atoms: _3  and  _6
REMARK    4  A    between atoms: _6  and  _7
REMARK    5  A    between atoms: _10  and  _12
REMARK    6  A    between atoms: _12  and  _13
REMARK    7  A    between atoms: _12  and  _15
REMARK    8  A    between atoms: _15  and  _16
REMARK    9  A    between atoms: _16  and  _17
REMARK   10  A    between atoms: _19  and  _21
REMARK   11  A    between atoms: _21  and  _22
REMARK   12  A    between atoms: _21  and  _24
REMARK   13  A    between atoms: _24  and  _25
REMARK   14  A    between atoms: _25  and  _26
REMARK   15  A    between atoms: _26  and  _27
REMARK   16  A    between atoms: _27  and  _28
REMARK   17  A    between atoms: _32  and  _34
REMARK   18  A    between atoms: _34  and  _35
REMARK   19  A    between atoms: _34  and  _37
REMARK   20  A    between atoms: _37  and  _38
REMARK   21  A    between atoms: _43  and  _45
REMARK   22  A    between atoms: _45  and  _46
REMARK   23  A    between atoms: _45  and  _48
REMARK   24  A    between atoms: _48  and  _49
REMARK   25  A    between atoms: _51  and  _53
REMARK   26  A    between atoms: _53  and  _54
REMARK   27  A    between atoms: _53  and  _56
REMARK   28  A    between atoms: _56  and  _57
REMARK   29  A    between atoms: _57  and  _58
REMARK   30  A    between atoms: _58  and  _59
REMARK   31  A    between atoms: _59  and  _60
REMARK   32  A    between atoms: _64  and  _66
REMARK   33  A    between atoms: _66  and  _67
REMARK   34  A    between atoms: _66  and  _69
REMARK   35  A    between atoms: _69  and  _70
REMARK   36  A    between atoms: _72  and  _74
REMARK   37  A    between atoms: _74  and  _75
REMARK   38  A    between atoms: _74  and  _77
REMARK   39  A    between atoms: _77  and  _78
REMARK   40  A    between atoms: _84  and  _86
REMARK   41  A    between atoms: _86  and  _87
REMARK   42  A    between atoms: _86  and  _89
REMARK   43  A    between atoms: _89  and  _90
REMARK   44  A    between atoms: _92  and  _94
REMARK   45  A    between atoms: _94  and  _95
REMARK   46  A    between atoms: _94  and  _97
REMARK   47  A    between atoms: _97  and  _98
REMARK   48  A    between atoms: _103  and  _104
REMARK   49  A    between atoms: _106  and  _108
REMARK   50  A    between atoms: _108  and  _109
REMARK   51  A    between atoms: _112  and  _114
REMARK   52  A    between atoms: _114  and  _115
REMARK   53  A    between atoms: _114  and  _117
REMARK   54  A    between atoms: _117  and  _118
REMARK   55  A    between atoms: _124  and  _126
REMARK   56  A    between atoms: _126  and  _127
REMARK   57  A    between atoms: _126  and  _129
REMARK   58  A    between atoms: _129  and  _130
REMARK   59  A    between atoms: _133  and  _135
REMARK   60  A    between atoms: _135  and  _136
REMARK   61  A    between atoms: _135  and  _138
REMARK   62  A    between atoms: _138  and  _139
REMARK   63  A    between atoms: _142  and  _144
REMARK   64  A    between atoms: _144  and  _145
REMARK   65  A    between atoms: _148  and  _150
REMARK   66  A    between atoms: _150  and  _151
REMARK   67  A    between atoms: _150  and  _153
REMARK   68  A    between atoms: _156  and  _158
REMARK   69  A    between atoms: _158  and  _159
REMARK   70  A    between atoms: _158  and  _161
REMARK   71  A    between atoms: _161  and  _162
REMARK   72  A    between atoms: _172  and  _174
REMARK   73  A    between atoms: _174  and  _175
REMARK   74  A    between atoms: _178  and  _180
REMARK   75  A    between atoms: _180  and  _181
REMARK   76  A    between atoms: _180  and  _183
REMARK   77  A    between atoms: _183  and  _184
REMARK   78  A    between atoms: _187  and  _189
REMARK   79  A    between atoms: _189  and  _190
REMARK   80  A    between atoms: _189  and  _192
REMARK   81  A    between atoms: _192  and  _193
REMARK   82  A    between atoms: _198  and  _199
REMARK   83  A    between atoms: _201  and  _203
REMARK   84  A    between atoms: _203  and  _204
REMARK   85  A    between atoms: _207  and  _209
REMARK   86  A    between atoms: _209  and  _210
REMARK   87  A    between atoms: _209  and  _212
REMARK   88  A    between atoms: _215  and  _217
REMARK   89  A    between atoms: _217  and  _218
REMARK   90  A    between atoms: _217  and  _220
REMARK   91  A    between atoms: _222  and  _224
REMARK   92  A    between atoms: _224  and  _225
REMARK   93  A    between atoms: _224  and  _227
REMARK   94  A    between atoms: _227  and  _228
REMARK   95  A    between atoms: _228  and  _229
REMARK   96  A    between atoms: _229  and  _230
REMARK   97  A    between atoms: _239  and  _241
REMARK   98  A    between atoms: _241  and  _242
REMARK   99  A    between atoms: _241  and  _244
REMARK  100  A    between atoms: _244  and  _245
REMARK  101  A    between atoms: _245  and  _246
REMARK  102  A    between atoms: _246  and  _247
REMARK  103  A    between atoms: _247  and  _248
REMARK  104  A    between atoms: _252  and  _254
REMARK  105  A    between atoms: _254  and  _255
REMARK  106  A    between atoms: _254  and  _257
REMARK  107  A    between atoms: _257  and  _258
REMARK  108  A    between atoms: _261  and  _263
REMARK  109  A    between atoms: _263  and  _264
REMARK  110  A    between atoms: _263  and  _266
REMARK  111  A    between atoms: _266  and  _267
REMARK  112  A    between atoms: _270  and  _272
REMARK  113  A    between atoms: _272  and  _273
REMARK  114  A    between atoms: _272  and  _275
REMARK  115  A    between atoms: _275  and  _276
REMARK  116  A    between atoms: _279  and  _281
REMARK  117  A    between atoms: _281  and  _282
REMARK  118  A    between atoms: _281  and  _284
REMARK  119  A    between atoms: _284  and  _285
REMARK  120  A    between atoms: _291  and  _293
REMARK  121  A    between atoms: _293  and  _294
REMARK  122  A    between atoms: _293  and  _296
REMARK  123  A    between atoms: _296  and  _297
REMARK  124  A    between atoms: _300  and  _302
REMARK  125  A    between atoms: _302  and  _303
REMARK  126  A    between atoms: _302  and  _305
REMARK  127  A    between atoms: _305  and  _306
REMARK  128  A    between atoms: _309  and  _311
REMARK  129  A    between atoms: _311  and  _312
REMARK  130  A    between atoms: _311  and  _314
REMARK  131  A    between atoms: _314  and  _315
REMARK  132  A    between atoms: _318  and  _320
REMARK  133  A    between atoms: _320  and  _321
REMARK  134  A    between atoms: _320  and  _323
REMARK  135  A    between atoms: _326  and  _328
REMARK  136  A    between atoms: _328  and  _329
REMARK  137  A    between atoms: _328  and  _331
REMARK  138  A    between atoms: _331  and  _332
REMARK  139  A    between atoms: _337  and  _338
REMARK  140  A    between atoms: _340  and  _342
REMARK  141  A    between atoms: _342  and  _343
REMARK  142  A    between atoms: _345  and  _347
REMARK  143  A    between atoms: _347  and  _348
REMARK  144  A    between atoms: _347  and  _350
REMARK  145  A    between atoms: _353  and  _355
REMARK  146  A    between atoms: _355  and  _356
REMARK  147  A    between atoms: _359  and  _361
REMARK  148  A    between atoms: _361  and  _362
REMARK  149  A    between atoms: _361  and  _364
REMARK  150  A    between atoms: _364  and  _365
REMARK  151  A    between atoms: _368  and  _370
REMARK  152  A    between atoms: _370  and  _371
REMARK  153  A    between atoms: _370  and  _373
REMARK  154  A    between atoms: _376  and  _378
REMARK  155  A    between atoms: _378  and  _379
REMARK  156  A    between atoms: _381  and  _383
REMARK  157  A    between atoms: _383  and  _384
REMARK  158  A    between atoms: _383  and  _386
REMARK  159  A    between atoms: _389  and  _391
REMARK  160  A    between atoms: _391  and  _392
REMARK  161  A    between atoms: _391  and  _394
REMARK  162  A    between atoms: _394  and  _395
REMARK  163  A    between atoms: _398  and  _400
REMARK  164  A    between atoms: _400  and  _401
REMARK  165  A    between atoms: _400  and  _403
REMARK  166  A    between atoms: _403  and  _404
REMARK  167  A    between atoms: _407  and  _409
REMARK  168  A    between atoms: _409  and  _410
REMARK  169  A    between atoms: _409  and  _412
REMARK  170  A    between atoms: _412  and  _413
REMARK  171  A    between atoms: _416  and  _418
REMARK  172  A    between atoms: _418  and  _419
REMARK  173  A    between atoms: _418  and  _421
REMARK  174  A    between atoms: _421  and  _422
REMARK  175  A    between atoms: _424  and  _426
REMARK  176  A    between atoms: _426  and  _427
REMARK  177  A    between atoms: _426  and  _429
REMARK  178  A    between atoms: _429  and  _430
REMARK  179  A    between atoms: _433  and  _435
REMARK  180  A    between atoms: _435  and  _436
REMARK  181  A    between atoms: _435  and  _438
REMARK  182  A    between atoms: _438  and  _439
REMARK  183  A    between atoms: _439  and  _440
REMARK  184  A    between atoms: _445  and  _447
REMARK  185  A    between atoms: _447  and  _448
REMARK  186  A    between atoms: _447  and  _450
REMARK  187  A    between atoms: _450  and  _451
REMARK  188  A    between atoms: _454  and  _456
REMARK  189  A    between atoms: _456  and  _457
REMARK  190  A    between atoms: _456  and  _459
REMARK  191  A    between atoms: _459  and  _460
REMARK  192  A    between atoms: _465  and  _467
REMARK  193  A    between atoms: _467  and  _468
REMARK  194  A    between atoms: _467  and  _470
REMARK  195  A    between atoms: _470  and  _471
REMARK  196  A    between atoms: _474  and  _476
REMARK  197  A    between atoms: _476  and  _477
REMARK  198  A    between atoms: _476  and  _479
REMARK  199  A    between atoms: _479  and  _480
REMARK  200  A    between atoms: _480  and  _481
REMARK  201  A    between atoms: _481  and  _482
REMARK  202  A    between atoms: _491  and  _493
REMARK  203  A    between atoms: _493  and  _494
REMARK  204  A    between atoms: _493  and  _496
REMARK  205  A    between atoms: _496  and  _497
REMARK  206  A    between atoms: _500  and  _502
REMARK  207  A    between atoms: _502  and  _503
REMARK  208  A    between atoms: _502  and  _505
REMARK  209  A    between atoms: _505  and  _506
REMARK  210  A    between atoms: _506  and  _507
REMARK  211  A    between atoms: _510  and  _512
REMARK  212  A    between atoms: _512  and  _513
REMARK  213  A    between atoms: _512  and  _515
REMARK  214  A    between atoms: _515  and  _516
REMARK  215  A    between atoms: _522  and  _524
REMARK  216  A    between atoms: _524  and  _525
REMARK  217  A    between atoms: _524  and  _527
REMARK  218  A    between atoms: _527  and  _528
REMARK  219  A    between atoms: _531  and  _533
REMARK  220  A    between atoms: _533  and  _534
REMARK  221  A    between atoms: _533  and  _536
REMARK  222  A    between atoms: _536  and  _537
REMARK  223  A    between atoms: _540  and  _542
REMARK  224  A    between atoms: _542  and  _543
REMARK  225  A    between atoms: _542  and  _545
REMARK  226  A    between atoms: _545  and  _546
REMARK  227  A    between atoms: _546  and  _547
REMARK  228  A    between atoms: _550  and  _552
REMARK  229  A    between atoms: _552  and  _553
REMARK  230  A    between atoms: _552  and  _555
REMARK  231  A    between atoms: _555  and  _556
REMARK  232  A    between atoms: _559  and  _561
REMARK  233  A    between atoms: _561  and  _562
REMARK  234  A    between atoms: _565  and  _567
REMARK  235  A    between atoms: _567  and  _568
REMARK  236  A    between atoms: _571  and  _573
REMARK  237  A    between atoms: _573  and  _574
REMARK  238  A    between atoms: _573  and  _576
REMARK  239  A    between atoms: _576  and  _577
REMARK  240  A    between atoms: _577  and  _578
REMARK  241  A    between atoms: _578  and  _579
REMARK  242  A    between atoms: _588  and  _590
REMARK  243  A    between atoms: _590  and  _591
REMARK  244  A    between atoms: _590  and  _593
REMARK  245  A    between atoms: _593  and  _594
REMARK  246  A    between atoms: _597  and  _599
REMARK  247  A    between atoms: _599  and  _600
REMARK  248  A    between atoms: _603  and  _605
REMARK  249  A    between atoms: _605  and  _606
REMARK  250  A    between atoms: _605  and  _608
REMARK  251  A    between atoms: _608  and  _609
REMARK  252  A    between atoms: _612  and  _614
REMARK  253  A    between atoms: _614  and  _615
REMARK  254  A    between atoms: _614  and  _617
REMARK  255  A    between atoms: _617  and  _618
REMARK  256  A    between atoms: _618  and  _619
REMARK  257  A    between atoms: _622  and  _624
REMARK  258  A    between atoms: _624  and  _625
REMARK  259  A    between atoms: _624  and  _627
REMARK  260  A    between atoms: _627  and  _628
REMARK  261  A    between atoms: _631  and  _633
REMARK  262  A    between atoms: _633  and  _634
REMARK  263  A    between atoms: _633  and  _636
REMARK  264  A    between atoms: _636  and  _637
REMARK  265  A    between atoms: _640  and  _642
REMARK  266  A    between atoms: _642  and  _643
REMARK  267  A    between atoms: _642  and  _645
REMARK  268  A    between atoms: _645  and  _646
REMARK  269  A    between atoms: _646  and  _647
REMARK  270  A    between atoms: _647  and  _648
REMARK  271  A    between atoms: _657  and  _659
REMARK  272  A    between atoms: _659  and  _660
REMARK  273  A    between atoms: _659  and  _662
REMARK  274  A    between atoms: _665  and  _667
REMARK  275  A    between atoms: _667  and  _668
REMARK  276  A    between atoms: _667  and  _670
REMARK  277  A    between atoms: _670  and  _671
REMARK  278  A    between atoms: _677  and  _679
REMARK  279  A    between atoms: _679  and  _680
REMARK  280  A    between atoms: _679  and  _682
REMARK  281  A    between atoms: _685  and  _687
REMARK  282  A    between atoms: _687  and  _688
REMARK  283  A    between atoms: _687  and  _690
REMARK  284  A    between atoms: _690  and  _691
REMARK  285  A    between atoms: _691  and  _692
REMARK  286  A    between atoms: _692  and  _693
REMARK  287  A    between atoms: _693  and  _694
REMARK                            x       y       z     vdW  Elec       q    Type
REMARK                         _______ _______ _______ _____ _____    ______ ____
ROOT
ATOM      1  CA  ARG A   7       9.489 -17.255   6.505  0.00  0.00    +0.149 C 
ENDROOT
BRANCH   1   3
ATOM      2  C   ALA A   6      11.564 -17.567   5.260  0.00  0.00    +0.241 C 
ATOM      3  N   ARG A   7      10.791 -17.873   6.300  0.00  0.00    -0.297 N 
ATOM      4  H   ARG A   7      11.128 -18.576   6.988  0.00  0.00    +0.150 HD
ATOM      5  O   ALA A   6      11.239 -16.745   4.411  0.00  0.00    -0.273 OA
BRANCH   2   6
ATOM      6  CA  ALA A   6      12.901 -18.299   5.150  0.00  0.00    +0.149 C 
ATOM      7  CB  ALA A   6      12.659 -19.705   4.659  0.00  0.00    +0.031 C 
BRANCH   6  10
ATOM      8  C   ALA A   5      13.861 -17.240   7.130  0.00  0.00    +0.241 C 
ATOM      9  O   ALA A   5      13.683 -16.095   6.691  0.00  0.00    -0.273 OA
ATOM     10  N   ALA A   6      13.608 -18.336   6.424  0.00  0.00    -0.297 N 
ATOM     11  H   ALA A   6      13.926 -19.255   6.794  0.00  0.00    +0.150 HD
BRANCH   8  12
ATOM     12  CA  ALA A   5      14.395 -17.460   8.541  0.00  0.00    +0.149 C 
ATOM     13  CB  ALA A   5      15.853 -17.895   8.495  0.00  0.00    +0.031 C 
BRANCH  12  16
ATOM     14  C   LEU A   4      12.319 -18.174   9.636  0.00  0.00    +0.241 C 
ATOM     15  O   LEU A   4      11.734 -17.141   9.313  0.00  0.00    -0.273 OA
ATOM     16  N   ALA A   5      13.585 -18.422   9.300  0.00  0.00    -0.297 N 
ATOM     17  H   ALA A   5      14.013 -19.326   9.585  0.00  0.00    +0.150 HD
BRANCH  14  18
ATOM     18  CA  LEU A   4      11.585 -19.242  10.454  0.00  0.00    +0.149 C 
BRANCH  18  20
ATOM     19  C   GLU A   3      11.789 -20.989   8.761  0.00  0.00    +0.241 C 
ATOM     20  N   LEU A   4      11.934 -20.595  10.022  0.00  0.00    -0.297 N 
ATOM     21  H   LEU A   4      12.306 -21.268  10.722  0.00  0.00    +0.150 HD
ATOM     22  O   GLU A   3      11.274 -20.276   7.896  0.00  0.00    -0.273 OA
BRANCH  19  23
ATOM     23  CA  GLU A   3      12.322 -22.384   8.409  0.00  0.00    +0.149 C 
BRANCH  23  25
ATOM     24  C   ILE A   2      14.699 -21.875   8.586  0.00  0.00    +0.241 C 
ATOM     25  N   GLU A   3      13.651 -22.596   8.974  0.00  0.00    -0.297 N 
ATOM     26  H   GLU A   3      13.782 -23.330   9.699  0.00  0.00    +0.150 HD
ATOM     27  O   ILE A   2      14.636 -21.006   7.702  0.00  0.00    -0.273 OA
BRANCH  24  28
ATOM     28  CA  ILE A   2      16.016 -22.149   9.329  0.00  0.00    +0.148 C 
BRANCH  28  31
ATOM     29  C   ILE A   1      15.328 -21.530  11.572  0.00  0.00    +0.238 C 
ATOM     30  O   ILE A   1      15.118 -20.365  11.226  0.00  0.00    -0.274 OA
ATOM     31  N   ILE A   2      15.771 -22.458  10.728  0.00  0.00    -0.297 N 
ATOM     32  H   ILE A   2      15.945 -23.423  11.076  0.00  0.00    +0.150 HD
BRANCH  29  33
ATOM     33  CA  ILE A   1      15.037 -21.990  13.002  0.00  0.00    +0.145 C 
BRANCH  33  34
ATOM     34  N   ILE A   1      14.432 -23.322  12.987  0.00  0.00    -0.238 NA
ATOM     35  H   ILE A   1      14.999 -24.134  13.305  0.00  0.00    +0.142 HD
ENDBRANCH  33  34
BRANCH  33  36
ATOM     36  CB  ILE A   1      16.295 -21.951  13.918  0.00  0.00    +0.025 C 
ATOM     37  CG2 ILE A   1      17.173 -20.747  13.649  0.00  0.00    +0.002 C 
BRANCH  36  38
ATOM     38  CG1 ILE A   1      15.904 -21.804  15.389  0.00  0.00    +0.002 C 
ATOM     39  CD1 ILE A   1      15.392 -23.053  16.043  0.00  0.00    +0.000 C 
ENDBRANCH  36  38
ENDBRANCH  33  36
ENDBRANCH  29  33
ENDBRANCH  28  31
BRANCH  28  40
ATOM     40  CB  ILE A   2      16.891 -23.239   8.673  0.00  0.00    +0.027 C 
ATOM     41  CG2 ILE A   2      16.894 -23.102   7.146  0.00  0.00    +0.002 C 
BRANCH  40  42
ATOM     42  CG1 ILE A   2      18.310 -23.116   9.236  0.00  0.00    +0.002 C 
ATOM     43  CD1 ILE A   2      19.050 -24.403   9.366  0.00  0.00    +0.000 C 
ENDBRANCH  40  42
ENDBRANCH  28  40
ENDBRANCH  24  28
ENDBRANCH  23  25
BRANCH  23  44
ATOM     44  CB  GLU A   3      11.339 -23.480   8.845  0.00  0.00    +0.041 C 
BRANCH  44  45
ATOM     45  CG  GLU A   3       9.976 -23.289   8.193  0.00  0.00    +0.116 C 
BRANCH  45  46
ATOM     46  CD  GLU A   3       9.034 -24.476   8.287  0.00  0.00    +0.365 C 
ATOM     47  OE2 GLU A   3       9.394 -25.549   8.820  0.00  0.00    -0.246 OA
ATOM     48  OE1 GLU A   3       7.898 -24.302   7.807  0.00  0.00    -0.246 OA
ENDBRANCH  45  46
ENDBRANCH  44  45
ENDBRANCH  23  44
ENDBRANCH  19  23
ENDBRANCH  18  20
BRANCH  18  49
ATOM     49  CB  LEU A   4      11.867 -19.053  11.948  0.00  0.00    +0.029 C 
BRANCH  49  50
ATOM     50  CG  LEU A   4      11.529 -17.709  12.606  0.00  0.00    +0.002 C 
ATOM     51  CD2 LEU A   4      12.144 -17.656  13.986  0.00  0.00    +0.000 C 
ATOM     52  CD1 LEU A   4      10.023 -17.414  12.672  0.00  0.00    +0.000 C 
ENDBRANCH  49  50
ENDBRANCH  18  49
ENDBRANCH  14  18
ENDBRANCH  12  16
ENDBRANCH   8  12
ENDBRANCH   6  10
ENDBRANCH   2   6
ENDBRANCH   1   3
BRANCH   1  53
ATOM     53  C   ARG A   7       9.560 -15.749   6.769  0.00  0.00    +0.241 C 
ATOM     54  N   ILE A   8      10.442 -15.327   7.669  0.00  0.00    -0.297 N 
ATOM     55  H   ILE A   8      11.023 -16.021   8.181  0.00  0.00    +0.150 HD
ATOM     56  O   ARG A   7       8.791 -14.990   6.182  0.00  0.00    -0.273 OA
BRANCH  54  57
ATOM     57  CA  ILE A   8      10.608 -13.907   7.949  0.00  0.00    +0.149 C 
BRANCH  57  58
ATOM     58  C   ILE A   8      11.064 -13.152   6.693  0.00  0.00    +0.241 C 
ATOM     59  O   ILE A   8      10.568 -12.060   6.401  0.00  0.00    -0.273 OA
ATOM     60  N   ALA A   9      11.970 -13.765   5.934  0.00  0.00    -0.297 N 
ATOM     61  H   ALA A   9      12.370 -14.665   6.267  0.00  0.00    +0.150 HD
BRANCH  60  62
ATOM     62  CA  ALA A   9      12.427 -13.229   4.653  0.00  0.00    +0.149 C 
ATOM     63  CB  ALA A   9      13.378 -14.202   3.974  0.00  0.00    +0.031 C 
BRANCH  62  64
ATOM     64  C   ALA A   9      11.261 -12.888   3.724  0.00  0.00    +0.241 C 
ATOM     65  N   ILE A  10      10.310 -13.811   3.615  0.00  0.00    -0.297 N 
ATOM     66  H   ILE A  10      10.402 -14.695   4.155  0.00  0.00    +0.150 HD
ATOM     67  O   ALA A   9      11.225 -11.805   3.130  0.00  0.00    -0.273 OA
BRANCH  65  68
ATOM     68  CA  ILE A  10       9.141 -13.623   2.761  0.00  0.00    +0.149 C 
BRANCH  68  69
ATOM     69  C   ILE A  10       8.226 -12.540   3.339  0.00  0.00    +0.241 C 
ATOM     70  N   GLU A  11       8.157 -12.496   4.669  0.00  0.00    -0.297 N 
ATOM     71  H   GLU A  11       8.687 -13.205   5.214  0.00  0.00    +0.150 HD
ATOM     72  O   ILE A  10       7.610 -11.768   2.594  0.00  0.00    -0.273 OA
BRANCH  70  73
ATOM     73  CA  GLU A  11       7.376 -11.504   5.400  0.00  0.00    +0.149 C 
BRANCH  73  74
ATOM     74  C   GLU A  11       7.925 -10.098   5.161  0.00  0.00    +0.241 C 
ATOM     75  N   ILE A  12       9.248  -9.975   5.064  0.00  0.00    -0.297 N 
ATOM     76  H   ILE A  12       9.841 -10.817   5.208  0.00  0.00    +0.150 HD
ATOM     77  O   GLU A  11       7.151  -9.151   5.050  0.00  0.00    -0.273 OA
BRANCH  75  78
ATOM     78  CA  ILE A  12       9.898  -8.700   4.762  0.00  0.00    +0.149 C 
BRANCH  78  79
ATOM     79  C   ILE A  12       9.533  -8.236   3.352  0.00  0.00    +0.241 C 
ATOM     80  O   ILE A  12       9.272  -7.051   3.143  0.00  0.00    -0.273 OA
ATOM     81  N   LEU A  13       9.470  -9.166   2.401  0.00  0.00    -0.298 N 
ATOM     82  H   LEU A  13       9.698 -10.153   2.636  0.00  0.00    +0.150 HD
BRANCH  81  83
ATOM     83  CA  LEU A  13       9.085  -8.824   1.031  0.00  0.00    +0.137 C 
BRANCH  83  84
ATOM     84  C   LEU A  13       7.643  -8.314   0.967  0.00  0.00    +0.227 C 
ATOM     85  O   LEU A  13       7.333  -7.396   0.203  0.00  0.00    -0.286 OA
ENDBRANCH  83  84
BRANCH  83  86
ATOM     86  CB  LEU A  13       9.294 -10.002   0.074  0.00  0.00    +0.028 C 
BRANCH  86  87
ATOM     87  CG  LEU A  13      10.729 -10.473  -0.191  0.00  0.00    +0.002 C 
ATOM     88  CD2 LEU A  13      11.608  -9.362  -0.712  0.00  0.00    +0.000 C 
ATOM     89  CD1 LEU A  13      10.748 -11.632  -1.169  0.00  0.00    +0.000 C 
ENDBRANCH  86  87
ENDBRANCH  83  86
ENDBRANCH  81  83
ENDBRANCH  78  79
BRANCH  78  90
ATOM     90  CB  ILE A  12      11.426  -8.787   4.953  0.00  0.00    +0.027 C 
ATOM     91  CG2 ILE A  12      12.159  -7.633   4.272  0.00  0.00    +0.002 C 
BRANCH  90  92
ATOM     92  CG1 ILE A  12      11.754  -8.841   6.447  0.00  0.00    +0.002 C 
ATOM     93  CD1 ILE A  12      13.159  -9.323   6.743  0.00  0.00    +0.000 C 
ENDBRANCH  90  92
ENDBRANCH  78  90
ENDBRANCH  75  78
ENDBRANCH  73  74
BRANCH  73  94
ATOM     94  CB  GLU A  11       7.349 -11.844   6.896  0.00  0.00    +0.041 C 
BRANCH  94  95
ATOM     95  CG  GLU A  11       6.355 -11.055   7.748  0.00  0.00    +0.116 C 
BRANCH  95  96
ATOM     96  CD  GLU A  11       4.899 -11.417   7.507  0.00  0.00    +0.365 C 
ATOM     97  OE2 GLU A  11       4.046 -10.855   8.230  0.00  0.00    -0.246 OA
ATOM     98  OE1 GLU A  11       4.590 -12.244   6.618  0.00  0.00    -0.246 OA
ENDBRANCH  95  96
ENDBRANCH  94  95
ENDBRANCH  73  94
ENDBRANCH  70  73
ENDBRANCH  68  69
BRANCH  68  99
ATOM     99  CB  ILE A  10       8.360 -14.949   2.555  0.00  0.00    +0.027 C 
ATOM    100  CG2 ILE A  10       7.306 -14.828   1.453  0.00  0.00    +0.002 C 
BRANCH  99 101
ATOM    101  CG1 ILE A  10       9.318 -16.105   2.250  0.00  0.00    +0.002 C 
ATOM    102  CD1 ILE A  10      10.286 -15.880   1.096  0.00  0.00    +0.000 C 
ENDBRANCH  99 101
ENDBRANCH  68  99
ENDBRANCH  65  68
ENDBRANCH  62  64
ENDBRANCH  60  62
ENDBRANCH  57  58
BRANCH  57 103
ATOM    103  CB  ILE A   8      11.537 -13.662   9.163  0.00  0.00    +0.027 C 
ATOM    104  CG2 ILE A   8      11.892 -12.177   9.271  0.00  0.00    +0.002 C 
BRANCH 103 105
ATOM    105  CG1 ILE A   8      10.849 -14.156  10.444  0.00  0.00    +0.002 C 
ATOM    106  CD1 ILE A   8      11.761 -14.296  11.668  0.00  0.00    +0.000 C 
ENDBRANCH 103 105
ENDBRANCH  57 103
ENDBRANCH  54  57
ENDBRANCH   1  53
BRANCH   1 107
ATOM    107  CB  ARG A   7       8.723 -17.943   7.637  0.00  0.00    +0.033 C 
BRANCH 107 108
ATOM    108  CG  ARG A   7       7.310 -17.404   7.857  0.00  0.00    +0.045 C 
BRANCH 108 109
ATOM    109  CD  ARG A   7       6.386 -17.714   6.679  0.00  0.00    +0.174 C 
BRANCH 109 110
ATOM    110  NE  ARG A   7       5.056 -17.121   6.825  0.00  0.00    -0.265 N 
ATOM    111  HE  ARG A   7       4.317 -17.695   7.280  0.00  0.00    +0.259 HD
ATOM    112  CZ  ARG A   7       4.726 -15.896   6.415  0.00  0.00    +0.342 C 
ATOM    113  NH2 ARG A   7       3.486 -15.448   6.579  0.00  0.00    -0.292 N 
ATOM    114 HH21 ARG A   7       2.770 -16.053   7.028  0.00  0.00    +0.255 HD
ATOM    115 HH22 ARG A   7       3.232 -14.492   6.258  0.00  0.00    +0.255 HD
ATOM    116  NH1 ARG A   7       5.631 -15.106   5.847  0.00  0.00    -0.292 N 
ATOM    117 HH11 ARG A   7       6.607 -15.442   5.719  0.00  0.00    +0.255 HD
ATOM    118 HH12 ARG A   7       5.363 -14.152   5.531  0.00  0.00    +0.255 HD
ENDBRANCH 109 110
ENDBRANCH 108 109
ENDBRANCH 107 108
ENDBRANCH   1 107
TORSDOF 50
REMARK  Name = ../refined-set-2016/3vje/3vje_pocket.pdb
REMARK  287 active torsions:
REMARK  status: ('A' for Active; 'I' for Inactive)
REMARK    1  A    between atoms: _1  and  _3
REMARK    2  A    between atoms: _3  and  _4
REMARK    3  A    between atoms: _3  and  _6
REMARK    4  A    between atoms: _6  and  _7
REMARK    5  A    between atoms: _10  and  _12
REMARK    6  A    between atoms: _12  and  _13
REMARK    7  A    between atoms: _12  and  _15
REMARK    8  A    between atoms: _15  and  _16
REMARK    9  A    between atoms: _16  and  _17
REMARK   10  A    between atoms: _19  and  _21
REMARK   11  A    between atoms: _21  and  _22
REMARK   12  A    between atoms: _21  and  _24
REMARK   13  A    between atoms: _24  and  _25
REMARK   14  A    between atoms: _25  and  _26
REMARK   15  A    between atoms: _26  and  _27
REMARK   16  A    between atoms: _27  and  _28
REMARK   17  A    between atoms: _32  and  _34
REMARK   18  A    between atoms: _34  and  _35
REMARK   19  A    between atoms: _34  and  _37
REMARK   20  A    between atoms: _37  and  _38
REMARK   21  A    between atoms: _43  and  _45
REMARK   22  A    between atoms: _45  and  _46
REMARK   23  A    between atoms: _45  and  _48
REMARK   24  A    between atoms: _48  and  _49
REMARK   25  A    between atoms: _51  and  _53
REMARK   26  A    between atoms: _53  and  _54
REMARK   27  A    between atoms: _53  and  _56
REMARK   28  A    between atoms: _56  and  _57
REMARK   29  A    between atoms: _57  and  _58
REMARK   30  A    between atoms: _58  and  _59
REMARK   31  A    between atoms: _59  and  _60
REMARK   32  A    between atoms: _64  and  _66
REMARK   33  A    between atoms: _66  and  _67
REMARK   34  A    between atoms: _66  and  _69
REMARK   35  A    between atoms: _69  and  _70
REMARK   36  A    between atoms: _72  and  _74
REMARK   37  A    between atoms: _74  and  _75
REMARK   38  A    between atoms: _74  and  _77
REMARK   39  A    between atoms: _77  and  _78
REMARK   40  A    between atoms: _84  and  _86
REMARK   41  A    between atoms: _86  and  _87
REMARK   42  A    between atoms: _86  and  _89
REMARK   43  A    between atoms: _89  and  _90
REMARK   44  A    between atoms: _92  and  _94
REMARK   45  A    between atoms: _94  and  _95
REMARK   46  A    between atoms: _94  and  _97
REMARK   47  A    between atoms: _97  and  _98
REMARK   48  A    between atoms: _103  and  _104
REMARK   49  A    between atoms: _106  and  _108
REMARK   50  A    between atoms: _108  and  _109
REMARK   51  A    between atoms: _112  and  _114
REMARK   52  A    between atoms: _114  and  _115
REMARK   53  A    between atoms: _114  and  _117
REMARK   54  A    between atoms: _117  and  _118
REMARK   55  A    between atoms: _124  and  _126
REMARK   56  A    between atoms: _126  and  _127
REMARK   57  A    between atoms: _126  and  _129
REMARK   58  A    between atoms: _129  and  _130
REMARK   59  A    between atoms: _133  and  _135
REMARK   60  A    between atoms: _135  and  _136
REMARK   61  A    between atoms: _135  and  _138
REMARK   62  A    between atoms: _138  and  _139
REMARK   63  A    between atoms: _142  and  _144
REMARK   64  A    between atoms: _144  and  _145
REMARK   65  A    between atoms: _148  and  _150
REMARK   66  A    between atoms: _150  and  _151
REMARK   67  A    between atoms: _150  and  _153
REMARK   68  A    between atoms: _156  and  _158
REMARK   69  A    between atoms: _158  and  _159
REMARK   70  A    between atoms: _158  and  _161
REMARK   71  A    between atoms: _161  and  _162
REMARK   72  A    between atoms: _172  and  _174
REMARK   73  A    between atoms: _174  and  _175
REMARK   74  A    between atoms: _178  and  _180
REMARK   75  A    between atoms: _180  and  _181
REMARK   76  A    between atoms: _180  and  _183
REMARK   77  A    between atoms: _183  and  _184
REMARK   78  A    between atoms: _187  and  _189
REMARK   79  A    between atoms: _189  and  _190
REMARK   80  A    between atoms: _189  and  _192
REMARK   81  A    between atoms: _192  and  _193
REMARK   82  A    between atoms: _198  and  _199
REMARK   83  A    between atoms: _201  and  _203
REMARK   84  A    between atoms: _203  and  _204
REMARK   85  A    between atoms: _207  and  _209
REMARK   86  A    between atoms: _209  and  _210
REMARK   87  A    between atoms: _209  and  _212
REMARK   88  A    between atoms: _215  and  _217
REMARK   89  A    between atoms: _217  and  _218
REMARK   90  A    between atoms: _217  and  _220
REMARK   91  A    between atoms: _222  and  _224
REMARK   92  A    between atoms: _224  and  _225
REMARK   93  A    between atoms: _224  and  _227
REMARK   94  A    between atoms: _227  and  _228
REMARK   95  A    between atoms: _228  and  _229
REMARK   96  A    between atoms: _229  and  _230
REMARK   97  A    between atoms: _239  and  _241
REMARK   98  A    between atoms: _241  and  _242
REMARK   99  A    between atoms: _241  and  _244
REMARK  100  A    between atoms: _244  and  _245
REMARK  101  A    between atoms: _245  and  _246
REMARK  102  A    between atoms: _246  and  _247
REMARK  103  A    between atoms: _247  and  _248
REMARK  104  A    between atoms: _252  and  _254
REMARK  105  A    between atoms: _254  and  _255
REMARK  106  A    between atoms: _254  and  _257
REMARK  107  A    between atoms: _257  and  _258
REMARK  108  A    between atoms: _261  and  _263
REMARK  109  A    between atoms: _263  and  _264
REMARK  110  A    between atoms: _263  and  _266
REMARK  111  A    between atoms: _266  and  _267
REMARK  112  A    between atoms: _270  and  _272
REMARK  113  A    between atoms: _272  and  _273
REMARK  114  A    between atoms: _272  and  _275
REMARK  115  A    between atoms: _275  and  _276
REMARK  116  A    between atoms: _279  and  _281
REMARK  117  A    between atoms: _281  and  _282
REMARK  118  A    between atoms: _281  and  _284
REMARK  119  A    between atoms: _284  and  _285
REMARK  120  A    between atoms: _291  and  _293
REMARK  121  A    between atoms: _293  and  _294
REMARK  122  A    between atoms: _293  and  _296
REMARK  123  A    between atoms: _296  and  _297
REMARK  124  A    between atoms: _300  and  _302
REMARK  125  A    between atoms: _302  and  _303
REMARK  126  A    between atoms: _302  and  _305
REMARK  127  A    between atoms: _305  and  _306
REMARK  128  A    between atoms: _309  and  _311
REMARK  129  A    between atoms: _311  and  _312
REMARK  130  A    between atoms: _311  and  _314
REMARK  131  A    between atoms: _314  and  _315
REMARK  132  A    between atoms: _318  and  _320
REMARK  133  A    between atoms: _320  and  _321
REMARK  134  A    between atoms: _320  and  _323
REMARK  135  A    between atoms: _326  and  _328
REMARK  136  A    between atoms: _328  and  _329
REMARK  137  A    between atoms: _328  and  _331
REMARK  138  A    between atoms: _331  and  _332
REMARK  139  A    between atoms: _337  and  _338
REMARK  140  A    between atoms: _340  and  _342
REMARK  141  A    between atoms: _342  and  _343
REMARK  142  A    between atoms: _345  and  _347
REMARK  143  A    between atoms: _347  and  _348
REMARK  144  A    between atoms: _347  and  _350
REMARK  145  A    between atoms: _353  and  _355
REMARK  146  A    between atoms: _355  and  _356
REMARK  147  A    between atoms: _359  and  _361
REMARK  148  A    between atoms: _361  and  _362
REMARK  149  A    between atoms: _361  and  _364
REMARK  150  A    between atoms: _364  and  _365
REMARK  151  A    between atoms: _368  and  _370
REMARK  152  A    between atoms: _370  and  _371
REMARK  153  A    between atoms: _370  and  _373
REMARK  154  A    between atoms: _376  and  _378
REMARK  155  A    between atoms: _378  and  _379
REMARK  156  A    between atoms: _381  and  _383
REMARK  157  A    between atoms: _383  and  _384
REMARK  158  A    between atoms: _383  and  _386
REMARK  159  A    between atoms: _389  and  _391
REMARK  160  A    between atoms: _391  and  _392
REMARK  161  A    between atoms: _391  and  _394
REMARK  162  A    between atoms: _394  and  _395
REMARK  163  A    between atoms: _398  and  _400
REMARK  164  A    between atoms: _400  and  _401
REMARK  165  A    between atoms: _400  and  _403
REMARK  166  A    between atoms: _403  and  _404
REMARK  167  A    between atoms: _407  and  _409
REMARK  168  A    between atoms: _409  and  _410
REMARK  169  A    between atoms: _409  and  _412
REMARK  170  A    between atoms: _412  and  _413
REMARK  171  A    between atoms: _416  and  _418
REMARK  172  A    between atoms: _418  and  _419
REMARK  173  A    between atoms: _418  and  _421
REMARK  174  A    between atoms: _421  and  _422
REMARK  175  A    between atoms: _424  and  _426
REMARK  176  A    between atoms: _426  and  _427
REMARK  177  A    between atoms: _426  and  _429
REMARK  178  A    between atoms: _429  and  _430
REMARK  179  A    between atoms: _433  and  _435
REMARK  180  A    between atoms: _435  and  _436
REMARK  181  A    between atoms: _435  and  _438
REMARK  182  A    between atoms: _438  and  _439
REMARK  183  A    between atoms: _439  and  _440
REMARK  184  A    between atoms: _445  and  _447
REMARK  185  A    between atoms: _447  and  _448
REMARK  186  A    between atoms: _447  and  _450
REMARK  187  A    between atoms: _450  and  _451
REMARK  188  A    between atoms: _454  and  _456
REMARK  189  A    between atoms: _456  and  _457
REMARK  190  A    between atoms: _456  and  _459
REMARK  191  A    between atoms: _459  and  _460
REMARK  192  A    between atoms: _465  and  _467
REMARK  193  A    between atoms: _467  and  _468
REMARK  194  A    between atoms: _467  and  _470
REMARK  195  A    between atoms: _470  and  _471
REMARK  196  A    between atoms: _474  and  _476
REMARK  197  A    between atoms: _476  and  _477
REMARK  198  A    between atoms: _476  and  _479
REMARK  199  A    between atoms: _479  and  _480
REMARK  200  A    between atoms: _480  and  _481
REMARK  201  A    between atoms: _481  and  _482
REMARK  202  A    between atoms: _491  and  _493
REMARK  203  A    between atoms: _493  and  _494
REMARK  204  A    between atoms: _493  and  _496
REMARK  205  A    between atoms: _496  and  _497
REMARK  206  A    between atoms: _500  and  _502
REMARK  207  A    between atoms: _502  and  _503
REMARK  208  A    between atoms: _502  and  _505
REMARK  209  A    between atoms: _505  and  _506
REMARK  210  A    between atoms: _506  and  _507
REMARK  211  A    between atoms: _510  and  _512
REMARK  212  A    between atoms: _512  and  _513
REMARK  213  A    between atoms: _512  and  _515
REMARK  214  A    between atoms: _515  and  _516
REMARK  215  A    between atoms: _522  and  _524
REMARK  216  A    between atoms: _524  and  _525
REMARK  217  A    between atoms: _524  and  _527
REMARK  218  A    between atoms: _527  and  _528
REMARK  219  A    between atoms: _531  and  _533
REMARK  220  A    between atoms: _533  and  _534
REMARK  221  A    between atoms: _533  and  _536
REMARK  222  A    between atoms: _536  and  _537
REMARK  223  A    between atoms: _540  and  _542
REMARK  224  A    between atoms: _542  and  _543
REMARK  225  A    between atoms: _542  and  _545
REMARK  226  A    between atoms: _545  and  _546
REMARK  227  A    between atoms: _546  and  _547
REMARK  228  A    between atoms: _550  and  _552
REMARK  229  A    between atoms: _552  and  _553
REMARK  230  A    between atoms: _552  and  _555
REMARK  231  A    between atoms: _555  and  _556
REMARK  232  A    between atoms: _559  and  _561
REMARK  233  A    between atoms: _561  and  _562
REMARK  234  A    between atoms: _565  and  _567
REMARK  235  A    between atoms: _567  and  _568
REMARK  236  A    between atoms: _571  and  _573
REMARK  237  A    between atoms: _573  and  _574
REMARK  238  A    between atoms: _573  and  _576
REMARK  239  A    between atoms: _576  and  _577
REMARK  240  A    between atoms: _577  and  _578
REMARK  241  A    between atoms: _578  and  _579
REMARK  242  A    between atoms: _588  and  _590
REMARK  243  A    between atoms: _590  and  _591
REMARK  244  A    between atoms: _590  and  _593
REMARK  245  A    between atoms: _593  and  _594
REMARK  246  A    between atoms: _597  and  _599
REMARK  247  A    between atoms: _599  and  _600
REMARK  248  A    between atoms: _603  and  _605
REMARK  249  A    between atoms: _605  and  _606
REMARK  250  A    between atoms: _605  and  _608
REMARK  251  A    between atoms: _608  and  _609
REMARK  252  A    between atoms: _612  and  _614
REMARK  253  A    between atoms: _614  and  _615
REMARK  254  A    between atoms: _614  and  _617
REMARK  255  A    between atoms: _617  and  _618
REMARK  256  A    between atoms: _618  and  _619
REMARK  257  A    between atoms: _622  and  _624
REMARK  258  A    between atoms: _624  and  _625
REMARK  259  A    between atoms: _624  and  _627
REMARK  260  A    between atoms: _627  and  _628
REMARK  261  A    between atoms: _631  and  _633
REMARK  262  A    between atoms: _633  and  _634
REMARK  263  A    between atoms: _633  and  _636
REMARK  264  A    between atoms: _636  and  _637
REMARK  265  A    between atoms: _640  and  _642
REMARK  266  A    between atoms: _642  and  _643
REMARK  267  A    between atoms: _642  and  _645
REMARK  268  A    between atoms: _645  and  _646
REMARK  269  A    between atoms: _646  and  _647
REMARK  270  A    between atoms: _647  and  _648
REMARK  271  A    between atoms: _657  and  _659
REMARK  272  A    between atoms: _659  and  _660
REMARK  273  A    between atoms: _659  and  _662
REMARK  274  A    between atoms: _665  and  _667
REMARK  275  A    between atoms: _667  and  _668
REMARK  276  A    between atoms: _667  and  _670
REMARK  277  A    between atoms: _670  and  _671
REMARK  278  A    between atoms: _677  and  _679
REMARK  279  A    between atoms: _679  and  _680
REMARK  280  A    between atoms: _679  and  _682
REMARK  281  A    between atoms: _685  and  _687
REMARK  282  A    between atoms: _687  and  _688
REMARK  283  A    between atoms: _687  and  _690
REMARK  284  A    between atoms: _690  and  _691
REMARK  285  A    between atoms: _691  and  _692
REMARK  286  A    between atoms: _692  and  _693
REMARK  287  A    between atoms: _693  and  _694
REMARK                            x       y       z     vdW  Elec       q    Type
REMARK                         _______ _______ _______ _____ _____    ______ ____
ROOT
ATOM      1  CA  VAL A   2      10.333  -1.936   7.029  0.00  0.00    +0.148 C 
ENDROOT
BRANCH   1   2
ATOM      2  C   VAL A   2      10.990  -2.981   7.928  0.00  0.00    +0.241 C 
ATOM      3  N   PHE A   3      10.245  -3.470   8.912  0.00  0.00    -0.297 N 
ATOM      4  H   PHE A   3       9.275  -3.117   9.040  0.00  0.00    +0.150 HD
ATOM      5  O   VAL A   2      12.164  -3.319   7.757  0.00  0.00    -0.273 OA
BRANCH   3   6
ATOM      6  CA  PHE A   3      10.761  -4.497   9.821  0.00  0.00    +0.153 C 
BRANCH   6   7
ATOM      7  C   PHE A   3       9.609  -5.344  10.336  0.00  0.00    +0.241 C 
ATOM      8  N   VAL A   4       9.905  -6.604  10.627  0.00  0.00    -0.298 N 
ATOM      9  H   VAL A   4      10.873  -6.951  10.471  0.00  0.00    +0.150 HD
ATOM     10  O   PHE A   3       8.480  -4.864  10.469  0.00  0.00    -0.273 OA
BRANCH   8  11
ATOM     11  CA  VAL A   4       8.901  -7.507  11.160  0.00  0.00    +0.137 C 
BRANCH  11  12
ATOM     12  CB  VAL A   4       9.114  -8.924  10.609  0.00  0.00    +0.026 C 
ATOM     13  CG2 VAL A   4       8.184  -9.910  11.280  0.00  0.00    +0.002 C 
ATOM     14  CG1 VAL A   4       8.885  -8.916   9.102  0.00  0.00    +0.002 C 
ENDBRANCH  11  12
BRANCH  11  15
ATOM     15  C   VAL A   4       8.932  -7.453  12.685  0.00  0.00    +0.227 C 
ATOM     16  O   VAL A   4       9.966  -7.719  13.285  0.00  0.00    -0.286 OA
ENDBRANCH  11  15
ENDBRANCH   8  11
ENDBRANCH   6   7
BRANCH   6  17
ATOM     17  CB  PHE A   3      11.515  -3.869  10.999  0.00  0.00    +0.055 C 
BRANCH  17  18
ATOM     18  CG  PHE A   3      10.649  -3.050  11.917  0.00  0.00    -0.020 A 
ATOM     19  CD2 PHE A   3      10.333  -3.511  13.199  0.00  0.00    -0.004 A 
ATOM     20  CE2 PHE A   3       9.528  -2.763  14.042  0.00  0.00    -0.000 A 
ATOM     21  CZ  PHE A   3       9.022  -1.533  13.621  0.00  0.00    -0.000 A 
ATOM     22  CE1 PHE A   3       9.333  -1.061  12.348  0.00  0.00    -0.000 A 
ATOM     23  CD1 PHE A   3      10.151  -1.816  11.513  0.00  0.00    -0.004 A 
ENDBRANCH  17  18
ENDBRANCH   6  17
ENDBRANCH   3   6
ENDBRANCH   1   2
BRANCH   1  26
ATOM     24  C   ARG A   1      11.995  -0.212   7.460  0.00  0.00    +0.238 C 
ATOM     25  O   ARG A   1      11.686  -0.130   8.648  0.00  0.00    -0.274 OA
ATOM     26  N   VAL A   2      11.346  -0.983   6.591  0.00  0.00    -0.297 N 
ATOM     27  H   VAL A   2      11.566  -0.904   5.578  0.00  0.00    +0.150 HD
BRANCH  24  28
ATOM     28  CA  ARG A   1      13.162   0.598   6.902  0.00  0.00    +0.145 C 
BRANCH  28  29
ATOM     29  N   ARG A   1      12.789   1.992   6.760  0.00  0.00    -0.238 NA
ATOM     30  H   ARG A   1      13.014   2.663   7.522  0.00  0.00    +0.142 HD
ENDBRANCH  28  29
BRANCH  28  31
ATOM     31  CB  ARG A   1      14.415   0.435   7.767  0.00  0.00    +0.030 C 
BRANCH  31  32
ATOM     32  CG  ARG A   1      14.803  -1.026   7.969  0.00  0.00    +0.045 C 
BRANCH  32  33
ATOM     33  CD  ARG A   1      16.292  -1.234   7.783  0.00  0.00    +0.174 C 
BRANCH  33  34
ATOM     34  NE  ARG A   1      16.854  -2.087   8.825  0.00  0.00    -0.265 N 
ATOM     35  HE  ARG A   1      16.194  -2.549   9.482  0.00  0.00    +0.259 HD
ATOM     36  CZ  ARG A   1      18.154  -2.313   8.991  0.00  0.00    +0.342 C 
ATOM     37  NH2 ARG A   1      18.561  -3.102   9.971  0.00  0.00    -0.292 N 
ATOM     38 HH21 ARG A   1      17.866  -3.542  10.607  0.00  0.00    +0.255 HD
ATOM     39 HH22 ARG A   1      19.576  -3.282  10.106  0.00  0.00    +0.255 HD
ATOM     40  NH1 ARG A   1      19.052  -1.755   8.187  0.00  0.00    -0.292 N 
ATOM     41 HH11 ARG A   1      20.065  -1.942   8.330  0.00  0.00    +0.255 HD
ATOM     42 HH12 ARG A   1      18.742  -1.131   7.415  0.00  0.00    +0.255 HD
ENDBRANCH  33  34
ENDBRANCH  32  33
ENDBRANCH  31  32
ENDBRANCH  28  31
ENDBRANCH  24  28
ENDBRANCH   1  26
BRANCH   1  43
ATOM     43  CB  VAL A   2       9.612  -2.625   5.852  0.00  0.00    +0.027 C 
ATOM     44  CG2 VAL A   2      10.545  -3.566   5.120  0.00  0.00    +0.002 C 
ATOM     45  CG1 VAL A   2       9.039  -1.593   4.898  0.00  0.00    +0.002 C 
ENDBRANCH   1  43
TORSDOF 16
REMARK  Name = ../refined-set-2016/3vje/3vje_pocket.pdb
REMARK  287 active torsions:
REMARK  status: ('A' for Active; 'I' for Inactive)
REMARK    1  A    between atoms: _1  and  _3
REMARK    2  A    between atoms: _3  and  _4
REMARK    3  A    between atoms: _3  and  _6
REMARK    4  A    between atoms: _6  and  _7
REMARK    5  A    between atoms: _10  and  _12
REMARK    6  A    between atoms: _12  and  _13
REMARK    7  A    between atoms: _12  and  _15
REMARK    8  A    between atoms: _15  and  _16
REMARK    9  A    between atoms: _16  and  _17
REMARK   10  A    between atoms: _19  and  _21
REMARK   11  A    between atoms: _21  and  _22
REMARK   12  A    between atoms: _21  and  _24
REMARK   13  A    between atoms: _24  and  _25
REMARK   14  A    between atoms: _25  and  _26
REMARK   15  A    between atoms: _26  and  _27
REMARK   16  A    between atoms: _27  and  _28
REMARK   17  A    between atoms: _32  and  _34
REMARK   18  A    between atoms: _34  and  _35
REMARK   19  A    between atoms: _34  and  _37
REMARK   20  A    between atoms: _37  and  _38
REMARK   21  A    between atoms: _43  and  _45
REMARK   22  A    between atoms: _45  and  _46
REMARK   23  A    between atoms: _45  and  _48
REMARK   24  A    between atoms: _48  and  _49
REMARK   25  A    between atoms: _51  and  _53
REMARK   26  A    between atoms: _53  and  _54
REMARK   27  A    between atoms: _53  and  _56
REMARK   28  A    between atoms: _56  and  _57
REMARK   29  A    between atoms: _57  and  _58
REMARK   30  A    between atoms: _58  and  _59
REMARK   31  A    between atoms: _59  and  _60
REMARK   32  A    between atoms: _64  and  _66
REMARK   33  A    between atoms: _66  and  _67
REMARK   34  A    between atoms: _66  and  _69
REMARK   35  A    between atoms: _69  and  _70
REMARK   36  A    between atoms: _72  and  _74
REMARK   37  A    between atoms: _74  and  _75
REMARK   38  A    between atoms: _74  and  _77
REMARK   39  A    between atoms: _77  and  _78
REMARK   40  A    between atoms: _84  and  _86
REMARK   41  A    between atoms: _86  and  _87
REMARK   42  A    between atoms: _86  and  _89
REMARK   43  A    between atoms: _89  and  _90
REMARK   44  A    between atoms: _92  and  _94
REMARK   45  A    between atoms: _94  and  _95
REMARK   46  A    between atoms: _94  and  _97
REMARK   47  A    between atoms: _97  and  _98
REMARK   48  A    between atoms: _103  and  _104
REMARK   49  A    between atoms: _106  and  _108
REMARK   50  A    between atoms: _108  and  _109
REMARK   51  A    between atoms: _112  and  _114
REMARK   52  A    between atoms: _114  and  _115
REMARK   53  A    between atoms: _114  and  _117
REMARK   54  A    between atoms: _117  and  _118
REMARK   55  A    between atoms: _124  and  _126
REMARK   56  A    between atoms: _126  and  _127
REMARK   57  A    between atoms: _126  and  _129
REMARK   58  A    between atoms: _129  and  _130
REMARK   59  A    between atoms: _133  and  _135
REMARK   60  A    between atoms: _135  and  _136
REMARK   61  A    between atoms: _135  and  _138
REMARK   62  A    between atoms: _138  and  _139
REMARK   63  A    between atoms: _142  and  _144
REMARK   64  A    between atoms: _144  and  _145
REMARK   65  A    between atoms: _148  and  _150
REMARK   66  A    between atoms: _150  and  _151
REMARK   67  A    between atoms: _150  and  _153
REMARK   68  A    between atoms: _156  and  _158
REMARK   69  A    between atoms: _158  and  _159
REMARK   70  A    between atoms: _158  and  _161
REMARK   71  A    between atoms: _161  and  _162
REMARK   72  A    between atoms: _172  and  _174
REMARK   73  A    between atoms: _174  and  _175
REMARK   74  A    between atoms: _178  and  _180
REMARK   75  A    between atoms: _180  and  _181
REMARK   76  A    between atoms: _180  and  _183
REMARK   77  A    between atoms: _183  and  _184
REMARK   78  A    between atoms: _187  and  _189
REMARK   79  A    between atoms: _189  and  _190
REMARK   80  A    between atoms: _189  and  _192
REMARK   81  A    between atoms: _192  and  _193
REMARK   82  A    between atoms: _198  and  _199
REMARK   83  A    between atoms: _201  and  _203
REMARK   84  A    between atoms: _203  and  _204
REMARK   85  A    between atoms: _207  and  _209
REMARK   86  A    between atoms: _209  and  _210
REMARK   87  A    between atoms: _209  and  _212
REMARK   88  A    between atoms: _215  and  _217
REMARK   89  A    between atoms: _217  and  _218
REMARK   90  A    between atoms: _217  and  _220
REMARK   91  A    between atoms: _222  and  _224
REMARK   92  A    between atoms: _224  and  _225
REMARK   93  A    between atoms: _224  and  _227
REMARK   94  A    between atoms: _227  and  _228
REMARK   95  A    between atoms: _228  and  _229
REMARK   96  A    between atoms: _229  and  _230
REMARK   97  A    between atoms: _239  and  _241
REMARK   98  A    between atoms: _241  and  _242
REMARK   99  A    between atoms: _241  and  _244
REMARK  100  A    between atoms: _244  and  _245
REMARK  101  A    between atoms: _245  and  _246
REMARK  102  A    between atoms: _246  and  _247
REMARK  103  A    between atoms: _247  and  _248
REMARK  104  A    between atoms: _252  and  _254
REMARK  105  A    between atoms: _254  and  _255
REMARK  106  A    between atoms: _254  and  _257
REMARK  107  A    between atoms: _257  and  _258
REMARK  108  A    between atoms: _261  and  _263
REMARK  109  A    between atoms: _263  and  _264
REMARK  110  A    between atoms: _263  and  _266
REMARK  111  A    between atoms: _266  and  _267
REMARK  112  A    between atoms: _270  and  _272
REMARK  113  A    between atoms: _272  and  _273
REMARK  114  A    between atoms: _272  and  _275
REMARK  115  A    between atoms: _275  and  _276
REMARK  116  A    between atoms: _279  and  _281
REMARK  117  A    between atoms: _281  and  _282
REMARK  118  A    between atoms: _281  and  _284
REMARK  119  A    between atoms: _284  and  _285
REMARK  120  A    between atoms: _291  and  _293
REMARK  121  A    between atoms: _293  and  _294
REMARK  122  A    between atoms: _293  and  _296
REMARK  123  A    between atoms: _296  and  _297
REMARK  124  A    between atoms: _300  and  _302
REMARK  125  A    between atoms: _302  and  _303
REMARK  126  A    between atoms: _302  and  _305
REMARK  127  A    between atoms: _305  and  _306
REMARK  128  A    between atoms: _309  and  _311
REMARK  129  A    between atoms: _311  and  _312
REMARK  130  A    between atoms: _311  and  _314
REMARK  131  A    between atoms: _314  and  _315
REMARK  132  A    between atoms: _318  and  _320
REMARK  133  A    between atoms: _320  and  _321
REMARK  134  A    between atoms: _320  and  _323
REMARK  135  A    between atoms: _326  and  _328
REMARK  136  A    between atoms: _328  and  _329
REMARK  137  A    between atoms: _328  and  _331
REMARK  138  A    between atoms: _331  and  _332
REMARK  139  A    between atoms: _337  and  _338
REMARK  140  A    between atoms: _340  and  _342
REMARK  141  A    between atoms: _342  and  _343
REMARK  142  A    between atoms: _345  and  _347
REMARK  143  A    between atoms: _347  and  _348
REMARK  144  A    between atoms: _347  and  _350
REMARK  145  A    between atoms: _353  and  _355
REMARK  146  A    between atoms: _355  and  _356
REMARK  147  A    between atoms: _359  and  _361
REMARK  148  A    between atoms: _361  and  _362
REMARK  149  A    between atoms: _361  and  _364
REMARK  150  A    between atoms: _364  and  _365
REMARK  151  A    between atoms: _368  and  _370
REMARK  152  A    between atoms: _370  and  _371
REMARK  153  A    between atoms: _370  and  _373
REMARK  154  A    between atoms: _376  and  _378
REMARK  155  A    between atoms: _378  and  _379
REMARK  156  A    between atoms: _381  and  _383
REMARK  157  A    between atoms: _383  and  _384
REMARK  158  A    between atoms: _383  and  _386
REMARK  159  A    between atoms: _389  and  _391
REMARK  160  A    between atoms: _391  and  _392
REMARK  161  A    between atoms: _391  and  _394
REMARK  162  A    between atoms: _394  and  _395
REMARK  163  A    between atoms: _398  and  _400
REMARK  164  A    between atoms: _400  and  _401
REMARK  165  A    between atoms: _400  and  _403
REMARK  166  A    between atoms: _403  and  _404
REMARK  167  A    between atoms: _407  and  _409
REMARK  168  A    between atoms: _409  and  _410
REMARK  169  A    between atoms: _409  and  _412
REMARK  170  A    between atoms: _412  and  _413
REMARK  171  A    between atoms: _416  and  _418
REMARK  172  A    between atoms: _418  and  _419
REMARK  173  A    between atoms: _418  and  _421
REMARK  174  A    between atoms: _421  and  _422
REMARK  175  A    between atoms: _424  and  _426
REMARK  176  A    between atoms: _426  and  _427
REMARK  177  A    between atoms: _426  and  _429
REMARK  178  A    between atoms: _429  and  _430
REMARK  179  A    between atoms: _433  and  _435
REMARK  180  A    between atoms: _435  and  _436
REMARK  181  A    between atoms: _435  and  _438
REMARK  182  A    between atoms: _438  and  _439
REMARK  183  A    between atoms: _439  and  _440
REMARK  184  A    between atoms: _445  and  _447
REMARK  185  A    between atoms: _447  and  _448
REMARK  186  A    between atoms: _447  and  _450
REMARK  187  A    between atoms: _450  and  _451
REMARK  188  A    between atoms: _454  and  _456
REMARK  189  A    between atoms: _456  and  _457
REMARK  190  A    between atoms: _456  and  _459
REMARK  191  A    between atoms: _459  and  _460
REMARK  192  A    between atoms: _465  and  _467
REMARK  193  A    between atoms: _467  and  _468
REMARK  194  A    between atoms: _467  and  _470
REMARK  195  A    between atoms: _470  and  _471
REMARK  196  A    between atoms: _474  and  _476
REMARK  197  A    between atoms: _476  and  _477
REMARK  198  A    between atoms: _476  and  _479
REMARK  199  A    between atoms: _479  and  _480
REMARK  200  A    between atoms: _480  and  _481
REMARK  201  A    between atoms: _481  and  _482
REMARK  202  A    between atoms: _491  and  _493
REMARK  203  A    between atoms: _493  and  _494
REMARK  204  A    between atoms: _493  and  _496
REMARK  205  A    between atoms: _496  and  _497
REMARK  206  A    between atoms: _500  and  _502
REMARK  207  A    between atoms: _502  and  _503
REMARK  208  A    between atoms: _502  and  _505
REMARK  209  A    between atoms: _505  and  _506
REMARK  210  A    between atoms: _506  and  _507
REMARK  211  A    between atoms: _510  and  _512
REMARK  212  A    between atoms: _512  and  _513
REMARK  213  A    between atoms: _512  and  _515
REMARK  214  A    between atoms: _515  and  _516
REMARK  215  A    between atoms: _522  and  _524
REMARK  216  A    between atoms: _524  and  _525
REMARK  217  A    between atoms: _524  and  _527
REMARK  218  A    between atoms: _527  and  _528
REMARK  219  A    between atoms: _531  and  _533
REMARK  220  A    between atoms: _533  and  _534
REMARK  221  A    between atoms: _533  and  _536
REMARK  222  A    between atoms: _536  and  _537
REMARK  223  A    between atoms: _540  and  _542
REMARK  224  A    between atoms: _542  and  _543
REMARK  225  A    between atoms: _542  and  _545
REMARK  226  A    between atoms: _545  and  _546
REMARK  227  A    between atoms: _546  and  _547
REMARK  228  A    between atoms: _550  and  _552
REMARK  229  A    between atoms: _552  and  _553
REMARK  230  A    between atoms: _552  and  _555
REMARK  231  A    between atoms: _555  and  _556
REMARK  232  A    between atoms: _559  and  _561
REMARK  233  A    between atoms: _561  and  _562
REMARK  234  A    between atoms: _565  and  _567
REMARK  235  A    between atoms: _567  and  _568
REMARK  236  A    between atoms: _571  and  _573
REMARK  237  A    between atoms: _573  and  _574
REMARK  238  A    between atoms: _573  and  _576
REMARK  239  A    between atoms: _576  and  _577
REMARK  240  A    between atoms: _577  and  _578
REMARK  241  A    between atoms: _578  and  _579
REMARK  242  A    between atoms: _588  and  _590
REMARK  243  A    between atoms: _590  and  _591
REMARK  244  A    between atoms: _590  and  _593
REMARK  245  A    between atoms: _593  and  _594
REMARK  246  A    between atoms: _597  and  _599
REMARK  247  A    between atoms: _599  and  _600
REMARK  248  A    between atoms: _603  and  _605
REMARK  249  A    between atoms: _605  and  _606
REMARK  250  A    between atoms: _605  and  _608
REMARK  251  A    between atoms: _608  and  _609
REMARK  252  A    between atoms: _612  and  _614
REMARK  253  A    between atoms: _614  and  _615
REMARK  254  A    between atoms: _614  and  _617
REMARK  255  A    between atoms: _617  and  _618
REMARK  256  A    between atoms: _618  and  _619
REMARK  257  A    between atoms: _622  and  _624
REMARK  258  A    between atoms: _624  and  _625
REMARK  259  A    between atoms: _624  and  _627
REMARK  260  A    between atoms: _627  and  _628
REMARK  261  A    between atoms: _631  and  _633
REMARK  262  A    between atoms: _633  and  _634
REMARK  263  A    between atoms: _633  and  _636
REMARK  264  A    between atoms: _636  and  _637
REMARK  265  A    between atoms: _640  and  _642
REMARK  266  A    between atoms: _642  and  _643
REMARK  267  A    between atoms: _642  and  _645
REMARK  268  A    between atoms: _645  and  _646
REMARK  269  A    between atoms: _646  and  _647
REMARK  270  A    between atoms: _647  and  _648
REMARK  271  A    between atoms: _657  and  _659
REMARK  272  A    between atoms: _659  and  _660
REMARK  273  A    between atoms: _659  and  _662
REMARK  274  A    between atoms: _665  and  _667
REMARK  275  A    between atoms: _667  and  _668
REMARK  276  A    between atoms: _667  and  _670
REMARK  277  A    between atoms: _670  and  _671
REMARK  278  A    between atoms: _677  and  _679
REMARK  279  A    between atoms: _679  and  _680
REMARK  280  A    between atoms: _679  and  _682
REMARK  281  A    between atoms: _685  and  _687
REMARK  282  A    between atoms: _687  and  _688
REMARK  283  A    between atoms: _687  and  _690
REMARK  284  A    between atoms: _690  and  _691
REMARK  285  A    between atoms: _691  and  _692
REMARK  286  A    between atoms: _692  and  _693
REMARK  287  A    between atoms: _693  and  _694
REMARK                            x       y       z     vdW  Elec       q    Type
REMARK                         _______ _______ _______ _____ _____    ______ ____
ROOT
ATOM      1  CG  LYS A   1      10.177 -11.870  13.887  0.00  0.00    -0.000 C 
ENDROOT
BRANCH   1   2
ATOM      2  CB  LYS A   1       9.560 -12.790  14.921  0.00  0.00    +0.025 C 
BRANCH   2   3
ATOM      3  CA  LYS A   1       8.147 -13.263  14.588  0.00  0.00    +0.133 C 
BRANCH   3   4
ATOM      4  N   LYS A   1       7.175 -12.177  14.700  0.00  0.00    -0.239 NA
ATOM      5  H   LYS A   1       7.504 -11.222  14.947  0.00  0.00    +0.142 HD
ENDBRANCH   3   4
BRANCH   3   6
ATOM      6  C   LYS A   1       7.792 -14.435  15.494  0.00  0.00    +0.224 C 
ATOM      7  O   LYS A   1       7.913 -15.594  15.089  0.00  0.00    -0.287 OA
ENDBRANCH   3   6
ENDBRANCH   2   3
ENDBRANCH   1   2
BRANCH   1   8
ATOM      8  CD  LYS A   1      11.602 -11.494  14.286  0.00  0.00    -0.024 C 
BRANCH   8   9
ATOM      9  CE  LYS A   1      12.192 -10.499  13.285  0.00  0.00    -0.086 C 
BRANCH   9  10
ATOM     10  NZ  LYS A   1      12.979  -9.445  13.968  0.00  0.00    +0.380 N 
ATOM     11  HZ1 LYS A   1      12.363  -8.926  14.626  0.00  0.00    -0.089 HD
ATOM     12  HZ2 LYS A   1      13.760  -9.884  14.496  0.00  0.00    -0.089 HD
ATOM     13  HZ3 LYS A   1      13.364  -8.788  13.260  0.00  0.00    -0.089 HD
ENDBRANCH   9  10
ENDBRANCH   8   9
ENDBRANCH   1   8
TORSDOF 7
REMARK  Name = ../refined-set-2016/3vje/3vje_pocket.pdb
REMARK  287 active torsions:
REMARK  status: ('A' for Active; 'I' for Inactive)
REMARK    1  A    between atoms: _1  and  _3
REMARK    2  A    between atoms: _3  and  _4
REMARK    3  A    between atoms: _3  and  _6
REMARK    4  A    between atoms: _6  and  _7
REMARK    5  A    between atoms: _10  and  _12
REMARK    6  A    between atoms: _12  and  _13
REMARK    7  A    between atoms: _12  and  _15
REMARK    8  A    between atoms: _15  and  _16
REMARK    9  A    between atoms: _16  and  _17
REMARK   10  A    between atoms: _19  and  _21
REMARK   11  A    between atoms: _21  and  _22
REMARK   12  A    between atoms: _21  and  _24
REMARK   13  A    between atoms: _24  and  _25
REMARK   14  A    between atoms: _25  and  _26
REMARK   15  A    between atoms: _26  and  _27
REMARK   16  A    between atoms: _27  and  _28
REMARK   17  A    between atoms: _32  and  _34
REMARK   18  A    between atoms: _34  and  _35
REMARK   19  A    between atoms: _34  and  _37
REMARK   20  A    between atoms: _37  and  _38
REMARK   21  A    between atoms: _43  and  _45
REMARK   22  A    between atoms: _45  and  _46
REMARK   23  A    between atoms: _45  and  _48
REMARK   24  A    between atoms: _48  and  _49
REMARK   25  A    between atoms: _51  and  _53
REMARK   26  A    between atoms: _53  and  _54
REMARK   27  A    between atoms: _53  and  _56
REMARK   28  A    between atoms: _56  and  _57
REMARK   29  A    between atoms: _57  and  _58
REMARK   30  A    between atoms: _58  and  _59
REMARK   31  A    between atoms: _59  and  _60
REMARK   32  A    between atoms: _64  and  _66
REMARK   33  A    between atoms: _66  and  _67
REMARK   34  A    between atoms: _66  and  _69
REMARK   35  A    between atoms: _69  and  _70
REMARK   36  A    between atoms: _72  and  _74
REMARK   37  A    between atoms: _74  and  _75
REMARK   38  A    between atoms: _74  and  _77
REMARK   39  A    between atoms: _77  and  _78
REMARK   40  A    between atoms: _84  and  _86
REMARK   41  A    between atoms: _86  and  _87
REMARK   42  A    between atoms: _86  and  _89
REMARK   43  A    between atoms: _89  and  _90
REMARK   44  A    between atoms: _92  and  _94
REMARK   45  A    between atoms: _94  and  _95
REMARK   46  A    between atoms: _94  and  _97
REMARK   47  A    between atoms: _97  and  _98
REMARK   48  A    between atoms: _103  and  _104
REMARK   49  A    between atoms: _106  and  _108
REMARK   50  A    between atoms: _108  and  _109
REMARK   51  A    between atoms: _112  and  _114
REMARK   52  A    between atoms: _114  and  _115
REMARK   53  A    between atoms: _114  and  _117
REMARK   54  A    between atoms: _117  and  _118
REMARK   55  A    between atoms: _124  and  _126
REMARK   56  A    between atoms: _126  and  _127
REMARK   57  A    between atoms: _126  and  _129
REMARK   58  A    between atoms: _129  and  _130
REMARK   59  A    between atoms: _133  and  _135
REMARK   60  A    between atoms: _135  and  _136
REMARK   61  A    between atoms: _135  and  _138
REMARK   62  A    between atoms: _138  and  _139
REMARK   63  A    between atoms: _142  and  _144
REMARK   64  A    between atoms: _144  and  _145
REMARK   65  A    between atoms: _148  and  _150
REMARK   66  A    between atoms: _150  and  _151
REMARK   67  A    between atoms: _150  and  _153
REMARK   68  A    between atoms: _156  and  _158
REMARK   69  A    between atoms: _158  and  _159
REMARK   70  A    between atoms: _158  and  _161
REMARK   71  A    between atoms: _161  and  _162
REMARK   72  A    between atoms: _172  and  _174
REMARK   73  A    between atoms: _174  and  _175
REMARK   74  A    between atoms: _178  and  _180
REMARK   75  A    between atoms: _180  and  _181
REMARK   76  A    between atoms: _180  and  _183
REMARK   77  A    between atoms: _183  and  _184
REMARK   78  A    between atoms: _187  and  _189
REMARK   79  A    between atoms: _189  and  _190
REMARK   80  A    between atoms: _189  and  _192
REMARK   81  A    between atoms: _192  and  _193
REMARK   82  A    between atoms: _198  and  _199
REMARK   83  A    between atoms: _201  and  _203
REMARK   84  A    between atoms: _203  and  _204
REMARK   85  A    between atoms: _207  and  _209
REMARK   86  A    between atoms: _209  and  _210
REMARK   87  A    between atoms: _209  and  _212
REMARK   88  A    between atoms: _215  and  _217
REMARK   89  A    between atoms: _217  and  _218
REMARK   90  A    between atoms: _217  and  _220
REMARK   91  A    between atoms: _222  and  _224
REMARK   92  A    between atoms: _224  and  _225
REMARK   93  A    between atoms: _224  and  _227
REMARK   94  A    between atoms: _227  and  _228
REMARK   95  A    between atoms: _228  and  _229
REMARK   96  A    between atoms: _229  and  _230
REMARK   97  A    between atoms: _239  and  _241
REMARK   98  A    between atoms: _241  and  _242
REMARK   99  A    between atoms: _241  and  _244
REMARK  100  A    between atoms: _244  and  _245
REMARK  101  A    between atoms: _245  and  _246
REMARK  102  A    between atoms: _246  and  _247
REMARK  103  A    between atoms: _247  and  _248
REMARK  104  A    between atoms: _252  and  _254
REMARK  105  A    between atoms: _254  and  _255
REMARK  106  A    between atoms: _254  and  _257
REMARK  107  A    between atoms: _257  and  _258
REMARK  108  A    between atoms: _261  and  _263
REMARK  109  A    between atoms: _263  and  _264
REMARK  110  A    between atoms: _263  and  _266
REMARK  111  A    between atoms: _266  and  _267
REMARK  112  A    between atoms: _270  and  _272
REMARK  113  A    between atoms: _272  and  _273
REMARK  114  A    between atoms: _272  and  _275
REMARK  115  A    between atoms: _275  and  _276
REMARK  116  A    between atoms: _279  and  _281
REMARK  117  A    between atoms: _281  and  _282
REMARK  118  A    between atoms: _281  and  _284
REMARK  119  A    between atoms: _284  and  _285
REMARK  120  A    between atoms: _291  and  _293
REMARK  121  A    between atoms: _293  and  _294
REMARK  122  A    between atoms: _293  and  _296
REMARK  123  A    between atoms: _296  and  _297
REMARK  124  A    between atoms: _300  and  _302
REMARK  125  A    between atoms: _302  and  _303
REMARK  126  A    between atoms: _302  and  _305
REMARK  127  A    between atoms: _305  and  _306
REMARK  128  A    between atoms: _309  and  _311
REMARK  129  A    between atoms: _311  and  _312
REMARK  130  A    between atoms: _311  and  _314
REMARK  131  A    between atoms: _314  and  _315
REMARK  132  A    between atoms: _318  and  _320
REMARK  133  A    between atoms: _320  and  _321
REMARK  134  A    between atoms: _320  and  _323
REMARK  135  A    between atoms: _326  and  _328
REMARK  136  A    between atoms: _328  and  _329
REMARK  137  A    between atoms: _328  and  _331
REMARK  138  A    between atoms: _331  and  _332
REMARK  139  A    between atoms: _337  and  _338
REMARK  140  A    between atoms: _340  and  _342
REMARK  141  A    between atoms: _342  and  _343
REMARK  142  A    between atoms: _345  and  _347
REMARK  143  A    between atoms: _347  and  _348
REMARK  144  A    between atoms: _347  and  _350
REMARK  145  A    between atoms: _353  and  _355
REMARK  146  A    between atoms: _355  and  _356
REMARK  147  A    between atoms: _359  and  _361
REMARK  148  A    between atoms: _361  and  _362
REMARK  149  A    between atoms: _361  and  _364
REMARK  150  A    between atoms: _364  and  _365
REMARK  151  A    between atoms: _368  and  _370
REMARK  152  A    between atoms: _370  and  _371
REMARK  153  A    between atoms: _370  and  _373
REMARK  154  A    between atoms: _376  and  _378
REMARK  155  A    between atoms: _378  and  _379
REMARK  156  A    between atoms: _381  and  _383
REMARK  157  A    between atoms: _383  and  _384
REMARK  158  A    between atoms: _383  and  _386
REMARK  159  A    between atoms: _389  and  _391
REMARK  160  A    between atoms: _391  and  _392
REMARK  161  A    between atoms: _391  and  _394
REMARK  162  A    between atoms: _394  and  _395
REMARK  163  A    between atoms: _398  and  _400
REMARK  164  A    between atoms: _400  and  _401
REMARK  165  A    between atoms: _400  and  _403
REMARK  166  A    between atoms: _403  and  _404
REMARK  167  A    between atoms: _407  and  _409
REMARK  168  A    between atoms: _409  and  _410
REMARK  169  A    between atoms: _409  and  _412
REMARK  170  A    between atoms: _412  and  _413
REMARK  171  A    between atoms: _416  and  _418
REMARK  172  A    between atoms: _418  and  _419
REMARK  173  A    between atoms: _418  and  _421
REMARK  174  A    between atoms: _421  and  _422
REMARK  175  A    between atoms: _424  and  _426
REMARK  176  A    between atoms: _426  and  _427
REMARK  177  A    between atoms: _426  and  _429
REMARK  178  A    between atoms: _429  and  _430
REMARK  179  A    between atoms: _433  and  _435
REMARK  180  A    between atoms: _435  and  _436
REMARK  181  A    between atoms: _435  and  _438
REMARK  182  A    between atoms: _438  and  _439
REMARK  183  A    between atoms: _439  and  _440
REMARK  184  A    between atoms: _445  and  _447
REMARK  185  A    between atoms: _447  and  _448
REMARK  186  A    between atoms: _447  and  _450
REMARK  187  A    between atoms: _450  and  _451
REMARK  188  A    between atoms: _454  and  _456
REMARK  189  A    between atoms: _456  and  _457
REMARK  190  A    between atoms: _456  and  _459
REMARK  191  A    between atoms: _459  and  _460
REMARK  192  A    between atoms: _465  and  _467
REMARK  193  A    between atoms: _467  and  _468
REMARK  194  A    between atoms: _467  and  _470
REMARK  195  A    between atoms: _470  and  _471
REMARK  196  A    between atoms: _474  and  _476
REMARK  197  A    between atoms: _476  and  _477
REMARK  198  A    between atoms: _476  and  _479
REMARK  199  A    between atoms: _479  and  _480
REMARK  200  A    between atoms: _480  and  _481
REMARK  201  A    between atoms: _481  and  _482
REMARK  202  A    between atoms: _491  and  _493
REMARK  203  A    between atoms: _493  and  _494
REMARK  204  A    between atoms: _493  and  _496
REMARK  205  A    between atoms: _496  and  _497
REMARK  206  A    between atoms: _500  and  _502
REMARK  207  A    between atoms: _502  and  _503
REMARK  208  A    between atoms: _502  and  _505
REMARK  209  A    between atoms: _505  and  _506
REMARK  210  A    between atoms: _506  and  _507
REMARK  211  A    between atoms: _510  and  _512
REMARK  212  A    between atoms: _512  and  _513
REMARK  213  A    between atoms: _512  and  _515
REMARK  214  A    between atoms: _515  and  _516
REMARK  215  A    between atoms: _522  and  _524
REMARK  216  A    between atoms: _524  and  _525
REMARK  217  A    between atoms: _524  and  _527
REMARK  218  A    between atoms: _527  and  _528
REMARK  219  A    between atoms: _531  and  _533
REMARK  220  A    between atoms: _533  and  _534
REMARK  221  A    between atoms: _533  and  _536
REMARK  222  A    between atoms: _536  and  _537
REMARK  223  A    between atoms: _540  and  _542
REMARK  224  A    between atoms: _542  and  _543
REMARK  225  A    between atoms: _542  and  _545
REMARK  226  A    between atoms: _545  and  _546
REMARK  227  A    between atoms: _546  and  _547
REMARK  228  A    between atoms: _550  and  _552
REMARK  229  A    between atoms: _552  and  _553
REMARK  230  A    between atoms: _552  and  _555
REMARK  231  A    between atoms: _555  and  _556
REMARK  232  A    between atoms: _559  and  _561
REMARK  233  A    between atoms: _561  and  _562
REMARK  234  A    between atoms: _565  and  _567
REMARK  235  A    between atoms: _567  and  _568
REMARK  236  A    between atoms: _571  and  _573
REMARK  237  A    between atoms: _573  and  _574
REMARK  238  A    between atoms: _573  and  _576
REMARK  239  A    between atoms: _576  and  _577
REMARK  240  A    between atoms: _577  and  _578
REMARK  241  A    between atoms: _578  and  _579
REMARK  242  A    between atoms: _588  and  _590
REMARK  243  A    between atoms: _590  and  _591
REMARK  244  A    between atoms: _590  and  _593
REMARK  245  A    between atoms: _593  and  _594
REMARK  246  A    between atoms: _597  and  _599
REMARK  247  A    between atoms: _599  and  _600
REMARK  248  A    between atoms: _603  and  _605
REMARK  249  A    between atoms: _605  and  _606
REMARK  250  A    between atoms: _605  and  _608
REMARK  251  A    between atoms: _608  and  _609
REMARK  252  A    between atoms: _612  and  _614
REMARK  253  A    between atoms: _614  and  _615
REMARK  254  A    between atoms: _614  and  _617
REMARK  255  A    between atoms: _617  and  _618
REMARK  256  A    between atoms: _618  and  _619
REMARK  257  A    between atoms: _622  and  _624
REMARK  258  A    between atoms: _624  and  _625
REMARK  259  A    between atoms: _624  and  _627
REMARK  260  A    between atoms: _627  and  _628
REMARK  261  A    between atoms: _631  and  _633
REMARK  262  A    between atoms: _633  and  _634
REMARK  263  A    between atoms: _633  and  _636
REMARK  264  A    between atoms: _636  and  _637
REMARK  265  A    between atoms: _640  and  _642
REMARK  266  A    between atoms: _642  and  _643
REMARK  267  A    between atoms: _642  and  _645
REMARK  268  A    between atoms: _645  and  _646
REMARK  269  A    between atoms: _646  and  _647
REMARK  270  A    between atoms: _647  and  _648
REMARK  271  A    between atoms: _657  and  _659
REMARK  272  A    between atoms: _659  and  _660
REMARK  273  A    between atoms: _659  and  _662
REMARK  274  A    between atoms: _665  and  _667
REMARK  275  A    between atoms: _667  and  _668
REMARK  276  A    between atoms: _667  and  _670
REMARK  277  A    between atoms: _670  and  _671
REMARK  278  A    between atoms: _677  and  _679
REMARK  279  A    between atoms: _679  and  _680
REMARK  280  A    between atoms: _679  and  _682
REMARK  281  A    between atoms: _685  and  _687
REMARK  282  A    between atoms: _687  and  _688
REMARK  283  A    between atoms: _687  and  _690
REMARK  284  A    between atoms: _690  and  _691
REMARK  285  A    between atoms: _691  and  _692
REMARK  286  A    between atoms: _692  and  _693
REMARK  287  A    between atoms: _693  and  _694
REMARK                            x       y       z     vdW  Elec       q    Type
REMARK                         _______ _______ _______ _____ _____    ______ ____
ROOT
ATOM      1  O   HOH     1      13.016  -8.391  10.179  0.00  0.00    +0.000 OA
ENDROOT
TORSDOF 0
REMARK  Name = ../refined-set-2016/3vje/3vje_pocket.pdb
REMARK  287 active torsions:
REMARK  status: ('A' for Active; 'I' for Inactive)
REMARK    1  A    between atoms: _1  and  _3
REMARK    2  A    between atoms: _3  and  _4
REMARK    3  A    between atoms: _3  and  _6
REMARK    4  A    between atoms: _6  and  _7
REMARK    5  A    between atoms: _10  and  _12
REMARK    6  A    between atoms: _12  and  _13
REMARK    7  A    between atoms: _12  and  _15
REMARK    8  A    between atoms: _15  and  _16
REMARK    9  A    between atoms: _16  and  _17
REMARK   10  A    between atoms: _19  and  _21
REMARK   11  A    between atoms: _21  and  _22
REMARK   12  A    between atoms: _21  and  _24
REMARK   13  A    between atoms: _24  and  _25
REMARK   14  A    between atoms: _25  and  _26
REMARK   15  A    between atoms: _26  and  _27
REMARK   16  A    between atoms: _27  and  _28
REMARK   17  A    between atoms: _32  and  _34
REMARK   18  A    between atoms: _34  and  _35
REMARK   19  A    between atoms: _34  and  _37
REMARK   20  A    between atoms: _37  and  _38
REMARK   21  A    between atoms: _43  and  _45
REMARK   22  A    between atoms: _45  and  _46
REMARK   23  A    between atoms: _45  and  _48
REMARK   24  A    between atoms: _48  and  _49
REMARK   25  A    between atoms: _51  and  _53
REMARK   26  A    between atoms: _53  and  _54
REMARK   27  A    between atoms: _53  and  _56
REMARK   28  A    between atoms: _56  and  _57
REMARK   29  A    between atoms: _57  and  _58
REMARK   30  A    between atoms: _58  and  _59
REMARK   31  A    between atoms: _59  and  _60
REMARK   32  A    between atoms: _64  and  _66
REMARK   33  A    between atoms: _66  and  _67
REMARK   34  A    between atoms: _66  and  _69
REMARK   35  A    between atoms: _69  and  _70
REMARK   36  A    between atoms: _72  and  _74
REMARK   37  A    between atoms: _74  and  _75
REMARK   38  A    between atoms: _74  and  _77
REMARK   39  A    between atoms: _77  and  _78
REMARK   40  A    between atoms: _84  and  _86
REMARK   41  A    between atoms: _86  and  _87
REMARK   42  A    between atoms: _86  and  _89
REMARK   43  A    between atoms: _89  and  _90
REMARK   44  A    between atoms: _92  and  _94
REMARK   45  A    between atoms: _94  and  _95
REMARK   46  A    between atoms: _94  and  _97
REMARK   47  A    between atoms: _97  and  _98
REMARK   48  A    between atoms: _103  and  _104
REMARK   49  A    between atoms: _106  and  _108
REMARK   50  A    between atoms: _108  and  _109
REMARK   51  A    between atoms: _112  and  _114
REMARK   52  A    between atoms: _114  and  _115
REMARK   53  A    between atoms: _114  and  _117
REMARK   54  A    between atoms: _117  and  _118
REMARK   55  A    between atoms: _124  and  _126
REMARK   56  A    between atoms: _126  and  _127
REMARK   57  A    between atoms: _126  and  _129
REMARK   58  A    between atoms: _129  and  _130
REMARK   59  A    between atoms: _133  and  _135
REMARK   60  A    between atoms: _135  and  _136
REMARK   61  A    between atoms: _135  and  _138
REMARK   62  A    between atoms: _138  and  _139
REMARK   63  A    between atoms: _142  and  _144
REMARK   64  A    between atoms: _144  and  _145
REMARK   65  A    between atoms: _148  and  _150
REMARK   66  A    between atoms: _150  and  _151
REMARK   67  A    between atoms: _150  and  _153
REMARK   68  A    between atoms: _156  and  _158
REMARK   69  A    between atoms: _158  and  _159
REMARK   70  A    between atoms: _158  and  _161
REMARK   71  A    between atoms: _161  and  _162
REMARK   72  A    between atoms: _172  and  _174
REMARK   73  A    between atoms: _174  and  _175
REMARK   74  A    between atoms: _178  and  _180
REMARK   75  A    between atoms: _180  and  _181
REMARK   76  A    between atoms: _180  and  _183
REMARK   77  A    between atoms: _183  and  _184
REMARK   78  A    between atoms: _187  and  _189
REMARK   79  A    between atoms: _189  and  _190
REMARK   80  A    between atoms: _189  and  _192
REMARK   81  A    between atoms: _192  and  _193
REMARK   82  A    between atoms: _198  and  _199
REMARK   83  A    between atoms: _201  and  _203
REMARK   84  A    between atoms: _203  and  _204
REMARK   85  A    between atoms: _207  and  _209
REMARK   86  A    between atoms: _209  and  _210
REMARK   87  A    between atoms: _209  and  _212
REMARK   88  A    between atoms: _215  and  _217
REMARK   89  A    between atoms: _217  and  _218
REMARK   90  A    between atoms: _217  and  _220
REMARK   91  A    between atoms: _222  and  _224
REMARK   92  A    between atoms: _224  and  _225
REMARK   93  A    between atoms: _224  and  _227
REMARK   94  A    between atoms: _227  and  _228
REMARK   95  A    between atoms: _228  and  _229
REMARK   96  A    between atoms: _229  and  _230
REMARK   97  A    between atoms: _239  and  _241
REMARK   98  A    between atoms: _241  and  _242
REMARK   99  A    between atoms: _241  and  _244
REMARK  100  A    between atoms: _244  and  _245
REMARK  101  A    between atoms: _245  and  _246
REMARK  102  A    between atoms: _246  and  _247
REMARK  103  A    between atoms: _247  and  _248
REMARK  104  A    between atoms: _252  and  _254
REMARK  105  A    between atoms: _254  and  _255
REMARK  106  A    between atoms: _254  and  _257
REMARK  107  A    between atoms: _257  and  _258
REMARK  108  A    between atoms: _261  and  _263
REMARK  109  A    between atoms: _263  and  _264
REMARK  110  A    between atoms: _263  and  _266
REMARK  111  A    between atoms: _266  and  _267
REMARK  112  A    between atoms: _270  and  _272
REMARK  113  A    between atoms: _272  and  _273
REMARK  114  A    between atoms: _272  and  _275
REMARK  115  A    between atoms: _275  and  _276
REMARK  116  A    between atoms: _279  and  _281
REMARK  117  A    between atoms: _281  and  _282
REMARK  118  A    between atoms: _281  and  _284
REMARK  119  A    between atoms: _284  and  _285
REMARK  120  A    between atoms: _291  and  _293
REMARK  121  A    between atoms: _293  and  _294
REMARK  122  A    between atoms: _293  and  _296
REMARK  123  A    between atoms: _296  and  _297
REMARK  124  A    between atoms: _300  and  _302
REMARK  125  A    between atoms: _302  and  _303
REMARK  126  A    between atoms: _302  and  _305
REMARK  127  A    between atoms: _305  and  _306
REMARK  128  A    between atoms: _309  and  _311
REMARK  129  A    between atoms: _311  and  _312
REMARK  130  A    between atoms: _311  and  _314
REMARK  131  A    between atoms: _314  and  _315
REMARK  132  A    between atoms: _318  and  _320
REMARK  133  A    between atoms: _320  and  _321
REMARK  134  A    between atoms: _320  and  _323
REMARK  135  A    between atoms: _326  and  _328
REMARK  136  A    between atoms: _328  and  _329
REMARK  137  A    between atoms: _328  and  _331
REMARK  138  A    between atoms: _331  and  _332
REMARK  139  A    between atoms: _337  and  _338
REMARK  140  A    between atoms: _340  and  _342
REMARK  141  A    between atoms: _342  and  _343
REMARK  142  A    between atoms: _345  and  _347
REMARK  143  A    between atoms: _347  and  _348
REMARK  144  A    between atoms: _347  and  _350
REMARK  145  A    between atoms: _353  and  _355
REMARK  146  A    between atoms: _355  and  _356
REMARK  147  A    between atoms: _359  and  _361
REMARK  148  A    between atoms: _361  and  _362
REMARK  149  A    between atoms: _361  and  _364
REMARK  150  A    between atoms: _364  and  _365
REMARK  151  A    between atoms: _368  and  _370
REMARK  152  A    between atoms: _370  and  _371
REMARK  153  A    between atoms: _370  and  _373
REMARK  154  A    between atoms: _376  and  _378
REMARK  155  A    between atoms: _378  and  _379
REMARK  156  A    between atoms: _381  and  _383
REMARK  157  A    between atoms: _383  and  _384
REMARK  158  A    between atoms: _383  and  _386
REMARK  159  A    between atoms: _389  and  _391
REMARK  160  A    between atoms: _391  and  _392
REMARK  161  A    between atoms: _391  and  _394
REMARK  162  A    between atoms: _394  and  _395
REMARK  163  A    between atoms: _398  and  _400
REMARK  164  A    between atoms: _400  and  _401
REMARK  165  A    between atoms: _400  and  _403
REMARK  166  A    between atoms: _403  and  _404
REMARK  167  A    between atoms: _407  and  _409
REMARK  168  A    between atoms: _409  and  _410
REMARK  169  A    between atoms: _409  and  _412
REMARK  170  A    between atoms: _412  and  _413
REMARK  171  A    between atoms: _416  and  _418
REMARK  172  A    between atoms: _418  and  _419
REMARK  173  A    between atoms: _418  and  _421
REMARK  174  A    between atoms: _421  and  _422
REMARK  175  A    between atoms: _424  and  _426
REMARK  176  A    between atoms: _426  and  _427
REMARK  177  A    between atoms: _426  and  _429
REMARK  178  A    between atoms: _429  and  _430
REMARK  179  A    between atoms: _433  and  _435
REMARK  180  A    between atoms: _435  and  _436
REMARK  181  A    between atoms: _435  and  _438
REMARK  182  A    between atoms: _438  and  _439
REMARK  183  A    between atoms: _439  and  _440
REMARK  184  A    between atoms: _445  and  _447
REMARK  185  A    between atoms: _447  and  _448
REMARK  186  A    between atoms: _447  and  _450
REMARK  187  A    between atoms: _450  and  _451
REMARK  188  A    between atoms: _454  and  _456
REMARK  189  A    between atoms: _456  and  _457
REMARK  190  A    between atoms: _456  and  _459
REMARK  191  A    between atoms: _459  and  _460
REMARK  192  A    between atoms: _465  and  _467
REMARK  193  A    between atoms: _467  and  _468
REMARK  194  A    between atoms: _467  and  _470
REMARK  195  A    between atoms: _470  and  _471
REMARK  196  A    between atoms: _474  and  _476
REMARK  197  A    between atoms: _476  and  _477
REMARK  198  A    between atoms: _476  and  _479
REMARK  199  A    between atoms: _479  and  _480
REMARK  200  A    between atoms: _480  and  _481
REMARK  201  A    between atoms: _481  and  _482
REMARK  202  A    between atoms: _491  and  _493
REMARK  203  A    between atoms: _493  and  _494
REMARK  204  A    between atoms: _493  and  _496
REMARK  205  A    between atoms: _496  and  _497
REMARK  206  A    between atoms: _500  and  _502
REMARK  207  A    between atoms: _502  and  _503
REMARK  208  A    between atoms: _502  and  _505
REMARK  209  A    between atoms: _505  and  _506
REMARK  210  A    between atoms: _506  and  _507
REMARK  211  A    between atoms: _510  and  _512
REMARK  212  A    between atoms: _512  and  _513
REMARK  213  A    between atoms: _512  and  _515
REMARK  214  A    between atoms: _515  and  _516
REMARK  215  A    between atoms: _522  and  _524
REMARK  216  A    between atoms: _524  and  _525
REMARK  217  A    between atoms: _524  and  _527
REMARK  218  A    between atoms: _527  and  _528
REMARK  219  A    between atoms: _531  and  _533
REMARK  220  A    between atoms: _533  and  _534
REMARK  221  A    between atoms: _533  and  _536
REMARK  222  A    between atoms: _536  and  _537
REMARK  223  A    between atoms: _540  and  _542
REMARK  224  A    between atoms: _542  and  _543
REMARK  225  A    between atoms: _542  and  _545
REMARK  226  A    between atoms: _545  and  _546
REMARK  227  A    between atoms: _546  and  _547
REMARK  228  A    between atoms: _550  and  _552
REMARK  229  A    between atoms: _552  and  _553
REMARK  230  A    between atoms: _552  and  _555
REMARK  231  A    between atoms: _555  and  _556
REMARK  232  A    between atoms: _559  and  _561
REMARK  233  A    between atoms: _561  and  _562
REMARK  234  A    between atoms: _565  and  _567
REMARK  235  A    between atoms: _567  and  _568
REMARK  236  A    between atoms: _571  and  _573
REMARK  237  A    between atoms: _573  and  _574
REMARK  238  A    between atoms: _573  and  _576
REMARK  239  A    between atoms: _576  and  _577
REMARK  240  A    between atoms: _577  and  _578
REMARK  241  A    between atoms: _578  and  _579
REMARK  242  A    between atoms: _588  and  _590
REMARK  243  A    between atoms: _590  and  _591
REMARK  244  A    between atoms: _590  and  _593
REMARK  245  A    between atoms: _593  and  _594
REMARK  246  A    between atoms: _597  and  _599
REMARK  247  A    between atoms: _599  and  _600
REMARK  248  A    between atoms: _603  and  _605
REMARK  249  A    between atoms: _605  and  _606
REMARK  250  A    between atoms: _605  and  _608
REMARK  251  A    between atoms: _608  and  _609
REMARK  252  A    between atoms: _612  and  _614
REMARK  253  A    between atoms: _614  and  _615
REMARK  254  A    between atoms: _614  and  _617
REMARK  255  A    between atoms: _617  and  _618
REMARK  256  A    between atoms: _618  and  _619
REMARK  257  A    between atoms: _622  and  _624
REMARK  258  A    between atoms: _624  and  _625
REMARK  259  A    between atoms: _624  and  _627
REMARK  260  A    between atoms: _627  and  _628
REMARK  261  A    between atoms: _631  and  _633
REMARK  262  A    between atoms: _633  and  _634
REMARK  263  A    between atoms: _633  and  _636
REMARK  264  A    between atoms: _636  and  _637
REMARK  265  A    between atoms: _640  and  _642
REMARK  266  A    between atoms: _642  and  _643
REMARK  267  A    between atoms: _642  and  _645
REMARK  268  A    between atoms: _645  and  _646
REMARK  269  A    between atoms: _646  and  _647
REMARK  270  A    between atoms: _647  and  _648
REMARK  271  A    between atoms: _657  and  _659
REMARK  272  A    between atoms: _659  and  _660
REMARK  273  A    between atoms: _659  and  _662
REMARK  274  A    between atoms: _665  and  _667
REMARK  275  A    between atoms: _667  and  _668
REMARK  276  A    between atoms: _667  and  _670
REMARK  277  A    between atoms: _670  and  _671
REMARK  278  A    between atoms: _677  and  _679
REMARK  279  A    between atoms: _679  and  _680
REMARK  280  A    between atoms: _679  and  _682
REMARK  281  A    between atoms: _685  and  _687
REMARK  282  A    between atoms: _687  and  _688
REMARK  283  A    between atoms: _687  and  _690
REMARK  284  A    between atoms: _690  and  _691
REMARK  285  A    between atoms: _691  and  _692
REMARK  286  A    between atoms: _692  and  _693
REMARK  287  A    between atoms: _693  and  _694
REMARK                            x       y       z     vdW  Elec       q    Type
REMARK                         _______ _______ _______ _____ _____    ______ ____
ROOT
ATOM      1  O   HOH     1      26.672  -7.428   4.301  0.00  0.00    +0.000 OA
ENDROOT
TORSDOF 0
REMARK  Name = ../refined-set-2016/3vje/3vje_pocket.pdb
REMARK  287 active torsions:
REMARK  status: ('A' for Active; 'I' for Inactive)
REMARK    1  A    between atoms: _1  and  _3
REMARK    2  A    between atoms: _3  and  _4
REMARK    3  A    between atoms: _3  and  _6
REMARK    4  A    between atoms: _6  and  _7
REMARK    5  A    between atoms: _10  and  _12
REMARK    6  A    between atoms: _12  and  _13
REMARK    7  A    between atoms: _12  and  _15
REMARK    8  A    between atoms: _15  and  _16
REMARK    9  A    between atoms: _16  and  _17
REMARK   10  A    between atoms: _19  and  _21
REMARK   11  A    between atoms: _21  and  _22
REMARK   12  A    between atoms: _21  and  _24
REMARK   13  A    between atoms: _24  and  _25
REMARK   14  A    between atoms: _25  and  _26
REMARK   15  A    between atoms: _26  and  _27
REMARK   16  A    between atoms: _27  and  _28
REMARK   17  A    between atoms: _32  and  _34
REMARK   18  A    between atoms: _34  and  _35
REMARK   19  A    between atoms: _34  and  _37
REMARK   20  A    between atoms: _37  and  _38
REMARK   21  A    between atoms: _43  and  _45
REMARK   22  A    between atoms: _45  and  _46
REMARK   23  A    between atoms: _45  and  _48
REMARK   24  A    between atoms: _48  and  _49
REMARK   25  A    between atoms: _51  and  _53
REMARK   26  A    between atoms: _53  and  _54
REMARK   27  A    between atoms: _53  and  _56
REMARK   28  A    between atoms: _56  and  _57
REMARK   29  A    between atoms: _57  and  _58
REMARK   30  A    between atoms: _58  and  _59
REMARK   31  A    between atoms: _59  and  _60
REMARK   32  A    between atoms: _64  and  _66
REMARK   33  A    between atoms: _66  and  _67
REMARK   34  A    between atoms: _66  and  _69
REMARK   35  A    between atoms: _69  and  _70
REMARK   36  A    between atoms: _72  and  _74
REMARK   37  A    between atoms: _74  and  _75
REMARK   38  A    between atoms: _74  and  _77
REMARK   39  A    between atoms: _77  and  _78
REMARK   40  A    between atoms: _84  and  _86
REMARK   41  A    between atoms: _86  and  _87
REMARK   42  A    between atoms: _86  and  _89
REMARK   43  A    between atoms: _89  and  _90
REMARK   44  A    between atoms: _92  and  _94
REMARK   45  A    between atoms: _94  and  _95
REMARK   46  A    between atoms: _94  and  _97
REMARK   47  A    between atoms: _97  and  _98
REMARK   48  A    between atoms: _103  and  _104
REMARK   49  A    between atoms: _106  and  _108
REMARK   50  A    between atoms: _108  and  _109
REMARK   51  A    between atoms: _112  and  _114
REMARK   52  A    between atoms: _114  and  _115
REMARK   53  A    between atoms: _114  and  _117
REMARK   54  A    between atoms: _117  and  _118
REMARK   55  A    between atoms: _124  and  _126
REMARK   56  A    between atoms: _126  and  _127
REMARK   57  A    between atoms: _126  and  _129
REMARK   58  A    between atoms: _129  and  _130
REMARK   59  A    between atoms: _133  and  _135
REMARK   60  A    between atoms: _135  and  _136
REMARK   61  A    between atoms: _135  and  _138
REMARK   62  A    between atoms: _138  and  _139
REMARK   63  A    between atoms: _142  and  _144
REMARK   64  A    between atoms: _144  and  _145
REMARK   65  A    between atoms: _148  and  _150
REMARK   66  A    between atoms: _150  and  _151
REMARK   67  A    between atoms: _150  and  _153
REMARK   68  A    between atoms: _156  and  _158
REMARK   69  A    between atoms: _158  and  _159
REMARK   70  A    between atoms: _158  and  _161
REMARK   71  A    between atoms: _161  and  _162
REMARK   72  A    between atoms: _172  and  _174
REMARK   73  A    between atoms: _174  and  _175
REMARK   74  A    between atoms: _178  and  _180
REMARK   75  A    between atoms: _180  and  _181
REMARK   76  A    between atoms: _180  and  _183
REMARK   77  A    between atoms: _183  and  _184
REMARK   78  A    between atoms: _187  and  _189
REMARK   79  A    between atoms: _189  and  _190
REMARK   80  A    between atoms: _189  and  _192
REMARK   81  A    between atoms: _192  and  _193
REMARK   82  A    between atoms: _198  and  _199
REMARK   83  A    between atoms: _201  and  _203
REMARK   84  A    between atoms: _203  and  _204
REMARK   85  A    between atoms: _207  and  _209
REMARK   86  A    between atoms: _209  and  _210
REMARK   87  A    between atoms: _209  and  _212
REMARK   88  A    between atoms: _215  and  _217
REMARK   89  A    between atoms: _217  and  _218
REMARK   90  A    between atoms: _217  and  _220
REMARK   91  A    between atoms: _222  and  _224
REMARK   92  A    between atoms: _224  and  _225
REMARK   93  A    between atoms: _224  and  _227
REMARK   94  A    between atoms: _227  and  _228
REMARK   95  A    between atoms: _228  and  _229
REMARK   96  A    between atoms: _229  and  _230
REMARK   97  A    between atoms: _239  and  _241
REMARK   98  A    between atoms: _241  and  _242
REMARK   99  A    between atoms: _241  and  _244
REMARK  100  A    between atoms: _244  and  _245
REMARK  101  A    between atoms: _245  and  _246
REMARK  102  A    between atoms: _246  and  _247
REMARK  103  A    between atoms: _247  and  _248
REMARK  104  A    between atoms: _252  and  _254
REMARK  105  A    between atoms: _254  and  _255
REMARK  106  A    between atoms: _254  and  _257
REMARK  107  A    between atoms: _257  and  _258
REMARK  108  A    between atoms: _261  and  _263
REMARK  109  A    between atoms: _263  and  _264
REMARK  110  A    between atoms: _263  and  _266
REMARK  111  A    between atoms: _266  and  _267
REMARK  112  A    between atoms: _270  and  _272
REMARK  113  A    between atoms: _272  and  _273
REMARK  114  A    between atoms: _272  and  _275
REMARK  115  A    between atoms: _275  and  _276
REMARK  116  A    between atoms: _279  and  _281
REMARK  117  A    between atoms: _281  and  _282
REMARK  118  A    between atoms: _281  and  _284
REMARK  119  A    between atoms: _284  and  _285
REMARK  120  A    between atoms: _291  and  _293
REMARK  121  A    between atoms: _293  and  _294
REMARK  122  A    between atoms: _293  and  _296
REMARK  123  A    between atoms: _296  and  _297
REMARK  124  A    between atoms: _300  and  _302
REMARK  125  A    between atoms: _302  and  _303
REMARK  126  A    between atoms: _302  and  _305
REMARK  127  A    between atoms: _305  and  _306
REMARK  128  A    between atoms: _309  and  _311
REMARK  129  A    between atoms: _311  and  _312
REMARK  130  A    between atoms: _311  and  _314
REMARK  131  A    between atoms: _314  and  _315
REMARK  132  A    between atoms: _318  and  _320
REMARK  133  A    between atoms: _320  and  _321
REMARK  134  A    between atoms: _320  and  _323
REMARK  135  A    between atoms: _326  and  _328
REMARK  136  A    between atoms: _328  and  _329
REMARK  137  A    between atoms: _328  and  _331
REMARK  138  A    between atoms: _331  and  _332
REMARK  139  A    between atoms: _337  and  _338
REMARK  140  A    between atoms: _340  and  _342
REMARK  141  A    between atoms: _342  and  _343
REMARK  142  A    between atoms: _345  and  _347
REMARK  143  A    between atoms: _347  and  _348
REMARK  144  A    between atoms: _347  and  _350
REMARK  145  A    between atoms: _353  and  _355
REMARK  146  A    between atoms: _355  and  _356
REMARK  147  A    between atoms: _359  and  _361
REMARK  148  A    between atoms: _361  and  _362
REMARK  149  A    between atoms: _361  and  _364
REMARK  150  A    between atoms: _364  and  _365
REMARK  151  A    between atoms: _368  and  _370
REMARK  152  A    between atoms: _370  and  _371
REMARK  153  A    between atoms: _370  and  _373
REMARK  154  A    between atoms: _376  and  _378
REMARK  155  A    between atoms: _378  and  _379
REMARK  156  A    between atoms: _381  and  _383
REMARK  157  A    between atoms: _383  and  _384
REMARK  158  A    between atoms: _383  and  _386
REMARK  159  A    between atoms: _389  and  _391
REMARK  160  A    between atoms: _391  and  _392
REMARK  161  A    between atoms: _391  and  _394
REMARK  162  A    between atoms: _394  and  _395
REMARK  163  A    between atoms: _398  and  _400
REMARK  164  A    between atoms: _400  and  _401
REMARK  165  A    between atoms: _400  and  _403
REMARK  166  A    between atoms: _403  and  _404
REMARK  167  A    between atoms: _407  and  _409
REMARK  168  A    between atoms: _409  and  _410
REMARK  169  A    between atoms: _409  and  _412
REMARK  170  A    between atoms: _412  and  _413
REMARK  171  A    between atoms: _416  and  _418
REMARK  172  A    between atoms: _418  and  _419
REMARK  173  A    between atoms: _418  and  _421
REMARK  174  A    between atoms: _421  and  _422
REMARK  175  A    between atoms: _424  and  _426
REMARK  176  A    between atoms: _426  and  _427
REMARK  177  A    between atoms: _426  and  _429
REMARK  178  A    between atoms: _429  and  _430
REMARK  179  A    between atoms: _433  and  _435
REMARK  180  A    between atoms: _435  and  _436
REMARK  181  A    between atoms: _435  and  _438
REMARK  182  A    between atoms: _438  and  _439
REMARK  183  A    between atoms: _439  and  _440
REMARK  184  A    between atoms: _445  and  _447
REMARK  185  A    between atoms: _447  and  _448
REMARK  186  A    between atoms: _447  and  _450
REMARK  187  A    between atoms: _450  and  _451
REMARK  188  A    between atoms: _454  and  _456
REMARK  189  A    between atoms: _456  and  _457
REMARK  190  A    between atoms: _456  and  _459
REMARK  191  A    between atoms: _459  and  _460
REMARK  192  A    between atoms: _465  and  _467
REMARK  193  A    between atoms: _467  and  _468
REMARK  194  A    between atoms: _467  and  _470
REMARK  195  A    between atoms: _470  and  _471
REMARK  196  A    between atoms: _474  and  _476
REMARK  197  A    between atoms: _476  and  _477
REMARK  198  A    between atoms: _476  and  _479
REMARK  199  A    between atoms: _479  and  _480
REMARK  200  A    between atoms: _480  and  _481
REMARK  201  A    between atoms: _481  and  _482
REMARK  202  A    between atoms: _491  and  _493
REMARK  203  A    between atoms: _493  and  _494
REMARK  204  A    between atoms: _493  and  _496
REMARK  205  A    between atoms: _496  and  _497
REMARK  206  A    between atoms: _500  and  _502
REMARK  207  A    between atoms: _502  and  _503
REMARK  208  A    between atoms: _502  and  _505
REMARK  209  A    between atoms: _505  and  _506
REMARK  210  A    between atoms: _506  and  _507
REMARK  211  A    between atoms: _510  and  _512
REMARK  212  A    between atoms: _512  and  _513
REMARK  213  A    between atoms: _512  and  _515
REMARK  214  A    between atoms: _515  and  _516
REMARK  215  A    between atoms: _522  and  _524
REMARK  216  A    between atoms: _524  and  _525
REMARK  217  A    between atoms: _524  and  _527
REMARK  218  A    between atoms: _527  and  _528
REMARK  219  A    between atoms: _531  and  _533
REMARK  220  A    between atoms: _533  and  _534
REMARK  221  A    between atoms: _533  and  _536
REMARK  222  A    between atoms: _536  and  _537
REMARK  223  A    between atoms: _540  and  _542
REMARK  224  A    between atoms: _542  and  _543
REMARK  225  A    between atoms: _542  and  _545
REMARK  226  A    between atoms: _545  and  _546
REMARK  227  A    between atoms: _546  and  _547
REMARK  228  A    between atoms: _550  and  _552
REMARK  229  A    between atoms: _552  and  _553
REMARK  230  A    between atoms: _552  and  _555
REMARK  231  A    between atoms: _555  and  _556
REMARK  232  A    between atoms: _559  and  _561
REMARK  233  A    between atoms: _561  and  _562
REMARK  234  A    between atoms: _565  and  _567
REMARK  235  A    between atoms: _567  and  _568
REMARK  236  A    between atoms: _571  and  _573
REMARK  237  A    between atoms: _573  and  _574
REMARK  238  A    between atoms: _573  and  _576
REMARK  239  A    between atoms: _576  and  _577
REMARK  240  A    between atoms: _577  and  _578
REMARK  241  A    between atoms: _578  and  _579
REMARK  242  A    between atoms: _588  and  _590
REMARK  243  A    between atoms: _590  and  _591
REMARK  244  A    between atoms: _590  and  _593
REMARK  245  A    between atoms: _593  and  _594
REMARK  246  A    between atoms: _597  and  _599
REMARK  247  A    between atoms: _599  and  _600
REMARK  248  A    between atoms: _603  and  _605
REMARK  249  A    between atoms: _605  and  _606
REMARK  250  A    between atoms: _605  and  _608
REMARK  251  A    between atoms: _608  and  _609
REMARK  252  A    between atoms: _612  and  _614
REMARK  253  A    between atoms: _614  and  _615
REMARK  254  A    between atoms: _614  and  _617
REMARK  255  A    between atoms: _617  and  _618
REMARK  256  A    between atoms: _618  and  _619
REMARK  257  A    between atoms: _622  and  _624
REMARK  258  A    between atoms: _624  and  _625
REMARK  259  A    between atoms: _624  and  _627
REMARK  260  A    between atoms: _627  and  _628
REMARK  261  A    between atoms: _631  and  _633
REMARK  262  A    between atoms: _633  and  _634
REMARK  263  A    between atoms: _633  and  _636
REMARK  264  A    between atoms: _636  and  _637
REMARK  265  A    between atoms: _640  and  _642
REMARK  266  A    between atoms: _642  and  _643
REMARK  267  A    between atoms: _642  and  _645
REMARK  268  A    between atoms: _645  and  _646
REMARK  269  A    between atoms: _646  and  _647
REMARK  270  A    between atoms: _647  and  _648
REMARK  271  A    between atoms: _657  and  _659
REMARK  272  A    between atoms: _659  and  _660
REMARK  273  A    between atoms: _659  and  _662
REMARK  274  A    between atoms: _665  and  _667
REMARK  275  A    between atoms: _667  and  _668
REMARK  276  A    between atoms: _667  and  _670
REMARK  277  A    between atoms: _670  and  _671
REMARK  278  A    between atoms: _677  and  _679
REMARK  279  A    between atoms: _679  and  _680
REMARK  280  A    between atoms: _679  and  _682
REMARK  281  A    between atoms: _685  and  _687
REMARK  282  A    between atoms: _687  and  _688
REMARK  283  A    between atoms: _687  and  _690
REMARK  284  A    between atoms: _690  and  _691
REMARK  285  A    between atoms: _691  and  _692
REMARK  286  A    between atoms: _692  and  _693
REMARK  287  A    between atoms: _693  and  _694
REMARK                            x       y       z     vdW  Elec       q    Type
REMARK                         _______ _______ _______ _____ _____    ______ ____
ROOT
ATOM      1  O   HOH     1      21.261  -2.731  14.120  0.00  0.00    +0.000 OA
ENDROOT
TORSDOF 0
REMARK  Name = ../refined-set-2016/3vje/3vje_pocket.pdb
REMARK  287 active torsions:
REMARK  status: ('A' for Active; 'I' for Inactive)
REMARK    1  A    between atoms: _1  and  _3
REMARK    2  A    between atoms: _3  and  _4
REMARK    3  A    between atoms: _3  and  _6
REMARK    4  A    between atoms: _6  and  _7
REMARK    5  A    between atoms: _10  and  _12
REMARK    6  A    between atoms: _12  and  _13
REMARK    7  A    between atoms: _12  and  _15
REMARK    8  A    between atoms: _15  and  _16
REMARK    9  A    between atoms: _16  and  _17
REMARK   10  A    between atoms: _19  and  _21
REMARK   11  A    between atoms: _21  and  _22
REMARK   12  A    between atoms: _21  and  _24
REMARK   13  A    between atoms: _24  and  _25
REMARK   14  A    between atoms: _25  and  _26
REMARK   15  A    between atoms: _26  and  _27
REMARK   16  A    between atoms: _27  and  _28
REMARK   17  A    between atoms: _32  and  _34
REMARK   18  A    between atoms: _34  and  _35
REMARK   19  A    between atoms: _34  and  _37
REMARK   20  A    between atoms: _37  and  _38
REMARK   21  A    between atoms: _43  and  _45
REMARK   22  A    between atoms: _45  and  _46
REMARK   23  A    between atoms: _45  and  _48
REMARK   24  A    between atoms: _48  and  _49
REMARK   25  A    between atoms: _51  and  _53
REMARK   26  A    between atoms: _53  and  _54
REMARK   27  A    between atoms: _53  and  _56
REMARK   28  A    between atoms: _56  and  _57
REMARK   29  A    between atoms: _57  and  _58
REMARK   30  A    between atoms: _58  and  _59
REMARK   31  A    between atoms: _59  and  _60
REMARK   32  A    between atoms: _64  and  _66
REMARK   33  A    between atoms: _66  and  _67
REMARK   34  A    between atoms: _66  and  _69
REMARK   35  A    between atoms: _69  and  _70
REMARK   36  A    between atoms: _72  and  _74
REMARK   37  A    between atoms: _74  and  _75
REMARK   38  A    between atoms: _74  and  _77
REMARK   39  A    between atoms: _77  and  _78
REMARK   40  A    between atoms: _84  and  _86
REMARK   41  A    between atoms: _86  and  _87
REMARK   42  A    between atoms: _86  and  _89
REMARK   43  A    between atoms: _89  and  _90
REMARK   44  A    between atoms: _92  and  _94
REMARK   45  A    between atoms: _94  and  _95
REMARK   46  A    between atoms: _94  and  _97
REMARK   47  A    between atoms: _97  and  _98
REMARK   48  A    between atoms: _103  and  _104
REMARK   49  A    between atoms: _106  and  _108
REMARK   50  A    between atoms: _108  and  _109
REMARK   51  A    between atoms: _112  and  _114
REMARK   52  A    between atoms: _114  and  _115
REMARK   53  A    between atoms: _114  and  _117
REMARK   54  A    between atoms: _117  and  _118
REMARK   55  A    between atoms: _124  and  _126
REMARK   56  A    between atoms: _126  and  _127
REMARK   57  A    between atoms: _126  and  _129
REMARK   58  A    between atoms: _129  and  _130
REMARK   59  A    between atoms: _133  and  _135
REMARK   60  A    between atoms: _135  and  _136
REMARK   61  A    between atoms: _135  and  _138
REMARK   62  A    between atoms: _138  and  _139
REMARK   63  A    between atoms: _142  and  _144
REMARK   64  A    between atoms: _144  and  _145
REMARK   65  A    between atoms: _148  and  _150
REMARK   66  A    between atoms: _150  and  _151
REMARK   67  A    between atoms: _150  and  _153
REMARK   68  A    between atoms: _156  and  _158
REMARK   69  A    between atoms: _158  and  _159
REMARK   70  A    between atoms: _158  and  _161
REMARK   71  A    between atoms: _161  and  _162
REMARK   72  A    between atoms: _172  and  _174
REMARK   73  A    between atoms: _174  and  _175
REMARK   74  A    between atoms: _178  and  _180
REMARK   75  A    between atoms: _180  and  _181
REMARK   76  A    between atoms: _180  and  _183
REMARK   77  A    between atoms: _183  and  _184
REMARK   78  A    between atoms: _187  and  _189
REMARK   79  A    between atoms: _189  and  _190
REMARK   80  A    between atoms: _189  and  _192
REMARK   81  A    between atoms: _192  and  _193
REMARK   82  A    between atoms: _198  and  _199
REMARK   83  A    between atoms: _201  and  _203
REMARK   84  A    between atoms: _203  and  _204
REMARK   85  A    between atoms: _207  and  _209
REMARK   86  A    between atoms: _209  and  _210
REMARK   87  A    between atoms: _209  and  _212
REMARK   88  A    between atoms: _215  and  _217
REMARK   89  A    between atoms: _217  and  _218
REMARK   90  A    between atoms: _217  and  _220
REMARK   91  A    between atoms: _222  and  _224
REMARK   92  A    between atoms: _224  and  _225
REMARK   93  A    between atoms: _224  and  _227
REMARK   94  A    between atoms: _227  and  _228
REMARK   95  A    between atoms: _228  and  _229
REMARK   96  A    between atoms: _229  and  _230
REMARK   97  A    between atoms: _239  and  _241
REMARK   98  A    between atoms: _241  and  _242
REMARK   99  A    between atoms: _241  and  _244
REMARK  100  A    between atoms: _244  and  _245
REMARK  101  A    between atoms: _245  and  _246
REMARK  102  A    between atoms: _246  and  _247
REMARK  103  A    between atoms: _247  and  _248
REMARK  104  A    between atoms: _252  and  _254
REMARK  105  A    between atoms: _254  and  _255
REMARK  106  A    between atoms: _254  and  _257
REMARK  107  A    between atoms: _257  and  _258
REMARK  108  A    between atoms: _261  and  _263
REMARK  109  A    between atoms: _263  and  _264
REMARK  110  A    between atoms: _263  and  _266
REMARK  111  A    between atoms: _266  and  _267
REMARK  112  A    between atoms: _270  and  _272
REMARK  113  A    between atoms: _272  and  _273
REMARK  114  A    between atoms: _272  and  _275
REMARK  115  A    between atoms: _275  and  _276
REMARK  116  A    between atoms: _279  and  _281
REMARK  117  A    between atoms: _281  and  _282
REMARK  118  A    between atoms: _281  and  _284
REMARK  119  A    between atoms: _284  and  _285
REMARK  120  A    between atoms: _291  and  _293
REMARK  121  A    between atoms: _293  and  _294
REMARK  122  A    between atoms: _293  and  _296
REMARK  123  A    between atoms: _296  and  _297
REMARK  124  A    between atoms: _300  and  _302
REMARK  125  A    between atoms: _302  and  _303
REMARK  126  A    between atoms: _302  and  _305
REMARK  127  A    between atoms: _305  and  _306
REMARK  128  A    between atoms: _309  and  _311
REMARK  129  A    between atoms: _311  and  _312
REMARK  130  A    between atoms: _311  and  _314
REMARK  131  A    between atoms: _314  and  _315
REMARK  132  A    between atoms: _318  and  _320
REMARK  133  A    between atoms: _320  and  _321
REMARK  134  A    between atoms: _320  and  _323
REMARK  135  A    between atoms: _326  and  _328
REMARK  136  A    between atoms: _328  and  _329
REMARK  137  A    between atoms: _328  and  _331
REMARK  138  A    between atoms: _331  and  _332
REMARK  139  A    between atoms: _337  and  _338
REMARK  140  A    between atoms: _340  and  _342
REMARK  141  A    between atoms: _342  and  _343
REMARK  142  A    between atoms: _345  and  _347
REMARK  143  A    between atoms: _347  and  _348
REMARK  144  A    between atoms: _347  and  _350
REMARK  145  A    between atoms: _353  and  _355
REMARK  146  A    between atoms: _355  and  _356
REMARK  147  A    between atoms: _359  and  _361
REMARK  148  A    between atoms: _361  and  _362
REMARK  149  A    between atoms: _361  and  _364
REMARK  150  A    between atoms: _364  and  _365
REMARK  151  A    between atoms: _368  and  _370
REMARK  152  A    between atoms: _370  and  _371
REMARK  153  A    between atoms: _370  and  _373
REMARK  154  A    between atoms: _376  and  _378
REMARK  155  A    between atoms: _378  and  _379
REMARK  156  A    between atoms: _381  and  _383
REMARK  157  A    between atoms: _383  and  _384
REMARK  158  A    between atoms: _383  and  _386
REMARK  159  A    between atoms: _389  and  _391
REMARK  160  A    between atoms: _391  and  _392
REMARK  161  A    between atoms: _391  and  _394
REMARK  162  A    between atoms: _394  and  _395
REMARK  163  A    between atoms: _398  and  _400
REMARK  164  A    between atoms: _400  and  _401
REMARK  165  A    between atoms: _400  and  _403
REMARK  166  A    between atoms: _403  and  _404
REMARK  167  A    between atoms: _407  and  _409
REMARK  168  A    between atoms: _409  and  _410
REMARK  169  A    between atoms: _409  and  _412
REMARK  170  A    between atoms: _412  and  _413
REMARK  171  A    between atoms: _416  and  _418
REMARK  172  A    between atoms: _418  and  _419
REMARK  173  A    between atoms: _418  and  _421
REMARK  174  A    between atoms: _421  and  _422
REMARK  175  A    between atoms: _424  and  _426
REMARK  176  A    between atoms: _426  and  _427
REMARK  177  A    between atoms: _426  and  _429
REMARK  178  A    between atoms: _429  and  _430
REMARK  179  A    between atoms: _433  and  _435
REMARK  180  A    between atoms: _435  and  _436
REMARK  181  A    between atoms: _435  and  _438
REMARK  182  A    between atoms: _438  and  _439
REMARK  183  A    between atoms: _439  and  _440
REMARK  184  A    between atoms: _445  and  _447
REMARK  185  A    between atoms: _447  and  _448
REMARK  186  A    between atoms: _447  and  _450
REMARK  187  A    between atoms: _450  and  _451
REMARK  188  A    between atoms: _454  and  _456
REMARK  189  A    between atoms: _456  and  _457
REMARK  190  A    between atoms: _456  and  _459
REMARK  191  A    between atoms: _459  and  _460
REMARK  192  A    between atoms: _465  and  _467
REMARK  193  A    between atoms: _467  and  _468
REMARK  194  A    between atoms: _467  and  _470
REMARK  195  A    between atoms: _470  and  _471
REMARK  196  A    between atoms: _474  and  _476
REMARK  197  A    between atoms: _476  and  _477
REMARK  198  A    between atoms: _476  and  _479
REMARK  199  A    between atoms: _479  and  _480
REMARK  200  A    between atoms: _480  and  _481
REMARK  201  A    between atoms: _481  and  _482
REMARK  202  A    between atoms: _491  and  _493
REMARK  203  A    between atoms: _493  and  _494
REMARK  204  A    between atoms: _493  and  _496
REMARK  205  A    between atoms: _496  and  _497
REMARK  206  A    between atoms: _500  and  _502
REMARK  207  A    between atoms: _502  and  _503
REMARK  208  A    between atoms: _502  and  _505
REMARK  209  A    between atoms: _505  and  _506
REMARK  210  A    between atoms: _506  and  _507
REMARK  211  A    between atoms: _510  and  _512
REMARK  212  A    between atoms: _512  and  _513
REMARK  213  A    between atoms: _512  and  _515
REMARK  214  A    between atoms: _515  and  _516
REMARK  215  A    between atoms: _522  and  _524
REMARK  216  A    between atoms: _524  and  _525
REMARK  217  A    between atoms: _524  and  _527
REMARK  218  A    between atoms: _527  and  _528
REMARK  219  A    between atoms: _531  and  _533
REMARK  220  A    between atoms: _533  and  _534
REMARK  221  A    between atoms: _533  and  _536
REMARK  222  A    between atoms: _536  and  _537
REMARK  223  A    between atoms: _540  and  _542
REMARK  224  A    between atoms: _542  and  _543
REMARK  225  A    between atoms: _542  and  _545
REMARK  226  A    between atoms: _545  and  _546
REMARK  227  A    between atoms: _546  and  _547
REMARK  228  A    between atoms: _550  and  _552
REMARK  229  A    between atoms: _552  and  _553
REMARK  230  A    between atoms: _552  and  _555
REMARK  231  A    between atoms: _555  and  _556
REMARK  232  A    between atoms: _559  and  _561
REMARK  233  A    between atoms: _561  and  _562
REMARK  234  A    between atoms: _565  and  _567
REMARK  235  A    between atoms: _567  and  _568
REMARK  236  A    between atoms: _571  and  _573
REMARK  237  A    between atoms: _573  and  _574
REMARK  238  A    between atoms: _573  and  _576
REMARK  239  A    between atoms: _576  and  _577
REMARK  240  A    between atoms: _577  and  _578
REMARK  241  A    between atoms: _578  and  _579
REMARK  242  A    between atoms: _588  and  _590
REMARK  243  A    between atoms: _590  and  _591
REMARK  244  A    between atoms: _590  and  _593
REMARK  245  A    between atoms: _593  and  _594
REMARK  246  A    between atoms: _597  and  _599
REMARK  247  A    between atoms: _599  and  _600
REMARK  248  A    between atoms: _603  and  _605
REMARK  249  A    between atoms: _605  and  _606
REMARK  250  A    between atoms: _605  and  _608
REMARK  251  A    between atoms: _608  and  _609
REMARK  252  A    between atoms: _612  and  _614
REMARK  253  A    between atoms: _614  and  _615
REMARK  254  A    between atoms: _614  and  _617
REMARK  255  A    between atoms: _617  and  _618
REMARK  256  A    between atoms: _618  and  _619
REMARK  257  A    between atoms: _622  and  _624
REMARK  258  A    between atoms: _624  and  _625
REMARK  259  A    between atoms: _624  and  _627
REMARK  260  A    between atoms: _627  and  _628
REMARK  261  A    between atoms: _631  and  _633
REMARK  262  A    between atoms: _633  and  _634
REMARK  263  A    between atoms: _633  and  _636
REMARK  264  A    between atoms: _636  and  _637
REMARK  265  A    between atoms: _640  and  _642
REMARK  266  A    between atoms: _642  and  _643
REMARK  267  A    between atoms: _642  and  _645
REMARK  268  A    between atoms: _645  and  _646
REMARK  269  A    between atoms: _646  and  _647
REMARK  270  A    between atoms: _647  and  _648
REMARK  271  A    between atoms: _657  and  _659
REMARK  272  A    between atoms: _659  and  _660
REMARK  273  A    between atoms: _659  and  _662
REMARK  274  A    between atoms: _665  and  _667
REMARK  275  A    between atoms: _667  and  _668
REMARK  276  A    between atoms: _667  and  _670
REMARK  277  A    between atoms: _670  and  _671
REMARK  278  A    between atoms: _677  and  _679
REMARK  279  A    between atoms: _679  and  _680
REMARK  280  A    between atoms: _679  and  _682
REMARK  281  A    between atoms: _685  and  _687
REMARK  282  A    between atoms: _687  and  _688
REMARK  283  A    between atoms: _687  and  _690
REMARK  284  A    between atoms: _690  and  _691
REMARK  285  A    between atoms: _691  and  _692
REMARK  286  A    between atoms: _692  and  _693
REMARK  287  A    between atoms: _693  and  _694
REMARK                            x       y       z     vdW  Elec       q    Type
REMARK                         _______ _______ _______ _____ _____    ______ ____
ROOT
ATOM      1  O   HOH     1      18.232 -10.755   5.302  0.00  0.00    +0.000 OA
ENDROOT
TORSDOF 0
