REMARK  Name = ../refined-set-2016/4g90/4g90_pocket.pdb
REMARK  140 active torsions:
REMARK  status: ('A' for Active; 'I' for Inactive)
REMARK    1  A    between atoms: _1  and  _3
REMARK    2  A    between atoms: _3  and  _4
REMARK    3  A    between atoms: _3  and  _6
REMARK    4  A    between atoms: _6  and  _7
REMARK    5  A    between atoms: _7  and  _8
REMARK    6  A    between atoms: _11  and  _13
REMARK    7  A    between atoms: _13  and  _14
REMARK    8  A    between atoms: _17  and  _19
REMARK    9  A    between atoms: _19  and  _20
REMARK   10  A    between atoms: _19  and  _22
REMARK   11  A    between atoms: _22  and  _23
REMARK   12  A    between atoms: _23  and  _24
REMARK   13  A    between atoms: _24  and  _25
REMARK   14  A    between atoms: _25  and  _26
REMARK   15  A    between atoms: _30  and  _32
REMARK   16  A    between atoms: _32  and  _33
REMARK   17  A    between atoms: _32  and  _35
REMARK   18  A    between atoms: _35  and  _36
REMARK   19  A    between atoms: _42  and  _44
REMARK   20  A    between atoms: _44  and  _45
REMARK   21  A    between atoms: _44  and  _47
REMARK   22  A    between atoms: _47  and  _48
REMARK   23  A    between atoms: _48  and  _49
REMARK   24  A    between atoms: _49  and  _50
REMARK   25  A    between atoms: _59  and  _61
REMARK   26  A    between atoms: _61  and  _62
REMARK   27  A    between atoms: _61  and  _64
REMARK   28  A    between atoms: _64  and  _65
REMARK   29  A    between atoms: _65  and  _66
REMARK   30  A    between atoms: _71  and  _73
REMARK   31  A    between atoms: _73  and  _74
REMARK   32  A    between atoms: _73  and  _76
REMARK   33  A    between atoms: _76  and  _77
REMARK   34  A    between atoms: _82  and  _84
REMARK   35  A    between atoms: _84  and  _85
REMARK   36  A    between atoms: _84  and  _87
REMARK   37  A    between atoms: _87  and  _88
REMARK   38  A    between atoms: _88  and  _89
REMARK   39  A    between atoms: _91  and  _93
REMARK   40  A    between atoms: _93  and  _94
REMARK   41  A    between atoms: _93  and  _96
REMARK   42  A    between atoms: _96  and  _97
REMARK   43  A    between atoms: _100  and  _102
REMARK   44  A    between atoms: _102  and  _103
REMARK   45  A    between atoms: _102  and  _105
REMARK   46  A    between atoms: _105  and  _106
REMARK   47  A    between atoms: _106  and  _107
REMARK   48  A    between atoms: _107  and  _108
REMARK   49  A    between atoms: _117  and  _119
REMARK   50  A    between atoms: _119  and  _120
REMARK   51  A    between atoms: _119  and  _122
REMARK   52  A    between atoms: _122  and  _123
REMARK   53  A    between atoms: _123  and  _124
REMARK   54  A    between atoms: _124  and  _125
REMARK   55  A    between atoms: _125  and  _126
REMARK   56  A    between atoms: _131  and  _132
REMARK   57  A    between atoms: _137  and  _139
REMARK   58  A    between atoms: _139  and  _140
REMARK   59  A    between atoms: _139  and  _142
REMARK   60  A    between atoms: _145  and  _147
REMARK   61  A    between atoms: _147  and  _148
REMARK   62  A    between atoms: _147  and  _150
REMARK   63  A    between atoms: _150  and  _151
REMARK   64  A    between atoms: _156  and  _158
REMARK   65  A    between atoms: _158  and  _159
REMARK   66  A    between atoms: _158  and  _161
REMARK   67  A    between atoms: _161  and  _162
REMARK   68  A    between atoms: _165  and  _167
REMARK   69  A    between atoms: _167  and  _168
REMARK   70  A    between atoms: _167  and  _170
REMARK   71  A    between atoms: _170  and  _171
REMARK   72  A    between atoms: _177  and  _179
REMARK   73  A    between atoms: _179  and  _180
REMARK   74  A    between atoms: _179  and  _182
REMARK   75  A    between atoms: _182  and  _183
REMARK   76  A    between atoms: _183  and  _184
REMARK   77  A    between atoms: _184  and  _185
REMARK   78  A    between atoms: _185  and  _186
REMARK   79  A    between atoms: _190  and  _192
REMARK   80  A    between atoms: _192  and  _193
REMARK   81  A    between atoms: _192  and  _195
REMARK   82  A    between atoms: _195  and  _196
REMARK   83  A    between atoms: _201  and  _203
REMARK   84  A    between atoms: _203  and  _204
REMARK   85  A    between atoms: _203  and  _206
REMARK   86  A    between atoms: _206  and  _207
REMARK   87  A    between atoms: _210  and  _212
REMARK   88  A    between atoms: _212  and  _213
REMARK   89  A    between atoms: _212  and  _215
REMARK   90  A    between atoms: _215  and  _216
REMARK   91  A    between atoms: _219  and  _221
REMARK   92  A    between atoms: _221  and  _222
REMARK   93  A    between atoms: _221  and  _224
REMARK   94  A    between atoms: _224  and  _225
REMARK   95  A    between atoms: _228  and  _230
REMARK   96  A    between atoms: _230  and  _231
REMARK   97  A    between atoms: _230  and  _233
REMARK   98  A    between atoms: _235  and  _237
REMARK   99  A    between atoms: _237  and  _238
REMARK  100  A    between atoms: _237  and  _240
REMARK  101  A    between atoms: _240  and  _241
REMARK  102  A    between atoms: _241  and  _242
REMARK  103  A    between atoms: _242  and  _243
REMARK  104  A    between atoms: _252  and  _254
REMARK  105  A    between atoms: _254  and  _255
REMARK  106  A    between atoms: _254  and  _257
REMARK  107  A    between atoms: _257  and  _258
REMARK  108  A    between atoms: _258  and  _259
REMARK  109  A    between atoms: _259  and  _260
REMARK  110  A    between atoms: _260  and  _261
REMARK  111  A    between atoms: _265  and  _267
REMARK  112  A    between atoms: _267  and  _268
REMARK  113  A    between atoms: _267  and  _270
REMARK  114  A    between atoms: _270  and  _271
REMARK  115  A    between atoms: _274  and  _276
REMARK  116  A    between atoms: _276  and  _277
REMARK  117  A    between atoms: _280  and  _282
REMARK  118  A    between atoms: _282  and  _283
REMARK  119  A    between atoms: _282  and  _285
REMARK  120  A    between atoms: _288  and  _290
REMARK  121  A    between atoms: _290  and  _291
REMARK  122  A    between atoms: _290  and  _293
REMARK  123  A    between atoms: _293  and  _294
REMARK  124  A    between atoms: _299  and  _301
REMARK  125  A    between atoms: _301  and  _302
REMARK  126  A    between atoms: _301  and  _304
REMARK  127  A    between atoms: _304  and  _305
REMARK  128  A    between atoms: _311  and  _313
REMARK  129  A    between atoms: _313  and  _314
REMARK  130  A    between atoms: _313  and  _316
REMARK  131  A    between atoms: _316  and  _317
REMARK  132  A    between atoms: _320  and  _322
REMARK  133  A    between atoms: _322  and  _323
REMARK  134  A    between atoms: _326  and  _328
REMARK  135  A    between atoms: _328  and  _329
REMARK  136  A    between atoms: _328  and  _331
REMARK  137  A    between atoms: _331  and  _332
REMARK  138  A    between atoms: _334  and  _336
REMARK  139  A    between atoms: _336  and  _337
REMARK  140  A    between atoms: _336  and  _339
REMARK                            x       y       z     vdW  Elec       q    Type
REMARK                         _______ _______ _______ _____ _____    ______ ____
ROOT
ATOM      1  CA  GLU A   1      34.356  16.631  10.367  0.00  0.00    +0.134 C 
ENDROOT
BRANCH   1   2
ATOM      2  N   GLU A   1      35.197  17.819  10.231  0.00  0.00    -0.239 NA
ATOM      3  H   GLU A   1      36.210  17.695  10.030  0.00  0.00    +0.142 HD
ENDBRANCH   1   2
BRANCH   1   4
ATOM      4  C   GLU A   1      34.265  16.178  11.820  0.00  0.00    +0.224 C 
ATOM      5  O   GLU A   1      35.278  15.850  12.426  0.00  0.00    -0.287 OA
ENDBRANCH   1   4
BRANCH   1   6
ATOM      6  CB  GLU A   1      34.918  15.487   9.506  0.00  0.00    +0.037 C 
BRANCH   6   7
ATOM      7  CG  GLU A   1      33.925  14.355   9.250  0.00  0.00    +0.116 C 
BRANCH   7   8
ATOM      8  CD  GLU A   1      34.530  13.182   8.499  0.00  0.00    +0.365 C 
ATOM      9  OE2 GLU A   1      35.686  12.799   8.781  0.00  0.00    -0.246 OA
ATOM     10  OE1 GLU A   1      33.837  12.627   7.628  0.00  0.00    -0.246 OA
ENDBRANCH   7   8
ENDBRANCH   6   7
ENDBRANCH   1   6
TORSDOF 5
REMARK  Name = ../refined-set-2016/4g90/4g90_pocket.pdb
REMARK  140 active torsions:
REMARK  status: ('A' for Active; 'I' for Inactive)
REMARK    1  A    between atoms: _1  and  _3
REMARK    2  A    between atoms: _3  and  _4
REMARK    3  A    between atoms: _3  and  _6
REMARK    4  A    between atoms: _6  and  _7
REMARK    5  A    between atoms: _7  and  _8
REMARK    6  A    between atoms: _11  and  _13
REMARK    7  A    between atoms: _13  and  _14
REMARK    8  A    between atoms: _17  and  _19
REMARK    9  A    between atoms: _19  and  _20
REMARK   10  A    between atoms: _19  and  _22
REMARK   11  A    between atoms: _22  and  _23
REMARK   12  A    between atoms: _23  and  _24
REMARK   13  A    between atoms: _24  and  _25
REMARK   14  A    between atoms: _25  and  _26
REMARK   15  A    between atoms: _30  and  _32
REMARK   16  A    between atoms: _32  and  _33
REMARK   17  A    between atoms: _32  and  _35
REMARK   18  A    between atoms: _35  and  _36
REMARK   19  A    between atoms: _42  and  _44
REMARK   20  A    between atoms: _44  and  _45
REMARK   21  A    between atoms: _44  and  _47
REMARK   22  A    between atoms: _47  and  _48
REMARK   23  A    between atoms: _48  and  _49
REMARK   24  A    between atoms: _49  and  _50
REMARK   25  A    between atoms: _59  and  _61
REMARK   26  A    between atoms: _61  and  _62
REMARK   27  A    between atoms: _61  and  _64
REMARK   28  A    between atoms: _64  and  _65
REMARK   29  A    between atoms: _65  and  _66
REMARK   30  A    between atoms: _71  and  _73
REMARK   31  A    between atoms: _73  and  _74
REMARK   32  A    between atoms: _73  and  _76
REMARK   33  A    between atoms: _76  and  _77
REMARK   34  A    between atoms: _82  and  _84
REMARK   35  A    between atoms: _84  and  _85
REMARK   36  A    between atoms: _84  and  _87
REMARK   37  A    between atoms: _87  and  _88
REMARK   38  A    between atoms: _88  and  _89
REMARK   39  A    between atoms: _91  and  _93
REMARK   40  A    between atoms: _93  and  _94
REMARK   41  A    between atoms: _93  and  _96
REMARK   42  A    between atoms: _96  and  _97
REMARK   43  A    between atoms: _100  and  _102
REMARK   44  A    between atoms: _102  and  _103
REMARK   45  A    between atoms: _102  and  _105
REMARK   46  A    between atoms: _105  and  _106
REMARK   47  A    between atoms: _106  and  _107
REMARK   48  A    between atoms: _107  and  _108
REMARK   49  A    between atoms: _117  and  _119
REMARK   50  A    between atoms: _119  and  _120
REMARK   51  A    between atoms: _119  and  _122
REMARK   52  A    between atoms: _122  and  _123
REMARK   53  A    between atoms: _123  and  _124
REMARK   54  A    between atoms: _124  and  _125
REMARK   55  A    between atoms: _125  and  _126
REMARK   56  A    between atoms: _131  and  _132
REMARK   57  A    between atoms: _137  and  _139
REMARK   58  A    between atoms: _139  and  _140
REMARK   59  A    between atoms: _139  and  _142
REMARK   60  A    between atoms: _145  and  _147
REMARK   61  A    between atoms: _147  and  _148
REMARK   62  A    between atoms: _147  and  _150
REMARK   63  A    between atoms: _150  and  _151
REMARK   64  A    between atoms: _156  and  _158
REMARK   65  A    between atoms: _158  and  _159
REMARK   66  A    between atoms: _158  and  _161
REMARK   67  A    between atoms: _161  and  _162
REMARK   68  A    between atoms: _165  and  _167
REMARK   69  A    between atoms: _167  and  _168
REMARK   70  A    between atoms: _167  and  _170
REMARK   71  A    between atoms: _170  and  _171
REMARK   72  A    between atoms: _177  and  _179
REMARK   73  A    between atoms: _179  and  _180
REMARK   74  A    between atoms: _179  and  _182
REMARK   75  A    between atoms: _182  and  _183
REMARK   76  A    between atoms: _183  and  _184
REMARK   77  A    between atoms: _184  and  _185
REMARK   78  A    between atoms: _185  and  _186
REMARK   79  A    between atoms: _190  and  _192
REMARK   80  A    between atoms: _192  and  _193
REMARK   81  A    between atoms: _192  and  _195
REMARK   82  A    between atoms: _195  and  _196
REMARK   83  A    between atoms: _201  and  _203
REMARK   84  A    between atoms: _203  and  _204
REMARK   85  A    between atoms: _203  and  _206
REMARK   86  A    between atoms: _206  and  _207
REMARK   87  A    between atoms: _210  and  _212
REMARK   88  A    between atoms: _212  and  _213
REMARK   89  A    between atoms: _212  and  _215
REMARK   90  A    between atoms: _215  and  _216
REMARK   91  A    between atoms: _219  and  _221
REMARK   92  A    between atoms: _221  and  _222
REMARK   93  A    between atoms: _221  and  _224
REMARK   94  A    between atoms: _224  and  _225
REMARK   95  A    between atoms: _228  and  _230
REMARK   96  A    between atoms: _230  and  _231
REMARK   97  A    between atoms: _230  and  _233
REMARK   98  A    between atoms: _235  and  _237
REMARK   99  A    between atoms: _237  and  _238
REMARK  100  A    between atoms: _237  and  _240
REMARK  101  A    between atoms: _240  and  _241
REMARK  102  A    between atoms: _241  and  _242
REMARK  103  A    between atoms: _242  and  _243
REMARK  104  A    between atoms: _252  and  _254
REMARK  105  A    between atoms: _254  and  _255
REMARK  106  A    between atoms: _254  and  _257
REMARK  107  A    between atoms: _257  and  _258
REMARK  108  A    between atoms: _258  and  _259
REMARK  109  A    between atoms: _259  and  _260
REMARK  110  A    between atoms: _260  and  _261
REMARK  111  A    between atoms: _265  and  _267
REMARK  112  A    between atoms: _267  and  _268
REMARK  113  A    between atoms: _267  and  _270
REMARK  114  A    between atoms: _270  and  _271
REMARK  115  A    between atoms: _274  and  _276
REMARK  116  A    between atoms: _276  and  _277
REMARK  117  A    between atoms: _280  and  _282
REMARK  118  A    between atoms: _282  and  _283
REMARK  119  A    between atoms: _282  and  _285
REMARK  120  A    between atoms: _288  and  _290
REMARK  121  A    between atoms: _290  and  _291
REMARK  122  A    between atoms: _290  and  _293
REMARK  123  A    between atoms: _293  and  _294
REMARK  124  A    between atoms: _299  and  _301
REMARK  125  A    between atoms: _301  and  _302
REMARK  126  A    between atoms: _301  and  _304
REMARK  127  A    between atoms: _304  and  _305
REMARK  128  A    between atoms: _311  and  _313
REMARK  129  A    between atoms: _313  and  _314
REMARK  130  A    between atoms: _313  and  _316
REMARK  131  A    between atoms: _316  and  _317
REMARK  132  A    between atoms: _320  and  _322
REMARK  133  A    between atoms: _322  and  _323
REMARK  134  A    between atoms: _326  and  _328
REMARK  135  A    between atoms: _328  and  _329
REMARK  136  A    between atoms: _328  and  _331
REMARK  137  A    between atoms: _331  and  _332
REMARK  138  A    between atoms: _334  and  _336
REMARK  139  A    between atoms: _336  and  _337
REMARK  140  A    between atoms: _336  and  _339
REMARK                            x       y       z     vdW  Elec       q    Type
REMARK                         _______ _______ _______ _____ _____    ______ ____
ROOT
ATOM      1  CA  ALA A   1      33.379  12.151  15.114  0.00  0.00    +0.133 C 
ATOM      2  CB  ALA A   1      33.713  11.811  16.558  0.00  0.00    +0.027 C 
ENDROOT
BRANCH   1   3
ATOM      3  N   ALA A   1      33.176  13.588  14.954  0.00  0.00    -0.239 NA
ATOM      4  H   ALA A   1      33.129  14.192  15.800  0.00  0.00    +0.142 HD
ENDBRANCH   1   3
BRANCH   1   5
ATOM      5  C   ALA A   1      32.130  11.413  14.670  0.00  0.00    +0.224 C 
ATOM      6  O   ALA A   1      32.211  10.330  14.093  0.00  0.00    -0.287 OA
ENDBRANCH   1   5
TORSDOF 2
REMARK  Name = ../refined-set-2016/4g90/4g90_pocket.pdb
REMARK  140 active torsions:
REMARK  status: ('A' for Active; 'I' for Inactive)
REMARK    1  A    between atoms: _1  and  _3
REMARK    2  A    between atoms: _3  and  _4
REMARK    3  A    between atoms: _3  and  _6
REMARK    4  A    between atoms: _6  and  _7
REMARK    5  A    between atoms: _7  and  _8
REMARK    6  A    between atoms: _11  and  _13
REMARK    7  A    between atoms: _13  and  _14
REMARK    8  A    between atoms: _17  and  _19
REMARK    9  A    between atoms: _19  and  _20
REMARK   10  A    between atoms: _19  and  _22
REMARK   11  A    between atoms: _22  and  _23
REMARK   12  A    between atoms: _23  and  _24
REMARK   13  A    between atoms: _24  and  _25
REMARK   14  A    between atoms: _25  and  _26
REMARK   15  A    between atoms: _30  and  _32
REMARK   16  A    between atoms: _32  and  _33
REMARK   17  A    between atoms: _32  and  _35
REMARK   18  A    between atoms: _35  and  _36
REMARK   19  A    between atoms: _42  and  _44
REMARK   20  A    between atoms: _44  and  _45
REMARK   21  A    between atoms: _44  and  _47
REMARK   22  A    between atoms: _47  and  _48
REMARK   23  A    between atoms: _48  and  _49
REMARK   24  A    between atoms: _49  and  _50
REMARK   25  A    between atoms: _59  and  _61
REMARK   26  A    between atoms: _61  and  _62
REMARK   27  A    between atoms: _61  and  _64
REMARK   28  A    between atoms: _64  and  _65
REMARK   29  A    between atoms: _65  and  _66
REMARK   30  A    between atoms: _71  and  _73
REMARK   31  A    between atoms: _73  and  _74
REMARK   32  A    between atoms: _73  and  _76
REMARK   33  A    between atoms: _76  and  _77
REMARK   34  A    between atoms: _82  and  _84
REMARK   35  A    between atoms: _84  and  _85
REMARK   36  A    between atoms: _84  and  _87
REMARK   37  A    between atoms: _87  and  _88
REMARK   38  A    between atoms: _88  and  _89
REMARK   39  A    between atoms: _91  and  _93
REMARK   40  A    between atoms: _93  and  _94
REMARK   41  A    between atoms: _93  and  _96
REMARK   42  A    between atoms: _96  and  _97
REMARK   43  A    between atoms: _100  and  _102
REMARK   44  A    between atoms: _102  and  _103
REMARK   45  A    between atoms: _102  and  _105
REMARK   46  A    between atoms: _105  and  _106
REMARK   47  A    between atoms: _106  and  _107
REMARK   48  A    between atoms: _107  and  _108
REMARK   49  A    between atoms: _117  and  _119
REMARK   50  A    between atoms: _119  and  _120
REMARK   51  A    between atoms: _119  and  _122
REMARK   52  A    between atoms: _122  and  _123
REMARK   53  A    between atoms: _123  and  _124
REMARK   54  A    between atoms: _124  and  _125
REMARK   55  A    between atoms: _125  and  _126
REMARK   56  A    between atoms: _131  and  _132
REMARK   57  A    between atoms: _137  and  _139
REMARK   58  A    between atoms: _139  and  _140
REMARK   59  A    between atoms: _139  and  _142
REMARK   60  A    between atoms: _145  and  _147
REMARK   61  A    between atoms: _147  and  _148
REMARK   62  A    between atoms: _147  and  _150
REMARK   63  A    between atoms: _150  and  _151
REMARK   64  A    between atoms: _156  and  _158
REMARK   65  A    between atoms: _158  and  _159
REMARK   66  A    between atoms: _158  and  _161
REMARK   67  A    between atoms: _161  and  _162
REMARK   68  A    between atoms: _165  and  _167
REMARK   69  A    between atoms: _167  and  _168
REMARK   70  A    between atoms: _167  and  _170
REMARK   71  A    between atoms: _170  and  _171
REMARK   72  A    between atoms: _177  and  _179
REMARK   73  A    between atoms: _179  and  _180
REMARK   74  A    between atoms: _179  and  _182
REMARK   75  A    between atoms: _182  and  _183
REMARK   76  A    between atoms: _183  and  _184
REMARK   77  A    between atoms: _184  and  _185
REMARK   78  A    between atoms: _185  and  _186
REMARK   79  A    between atoms: _190  and  _192
REMARK   80  A    between atoms: _192  and  _193
REMARK   81  A    between atoms: _192  and  _195
REMARK   82  A    between atoms: _195  and  _196
REMARK   83  A    between atoms: _201  and  _203
REMARK   84  A    between atoms: _203  and  _204
REMARK   85  A    between atoms: _203  and  _206
REMARK   86  A    between atoms: _206  and  _207
REMARK   87  A    between atoms: _210  and  _212
REMARK   88  A    between atoms: _212  and  _213
REMARK   89  A    between atoms: _212  and  _215
REMARK   90  A    between atoms: _215  and  _216
REMARK   91  A    between atoms: _219  and  _221
REMARK   92  A    between atoms: _221  and  _222
REMARK   93  A    between atoms: _221  and  _224
REMARK   94  A    between atoms: _224  and  _225
REMARK   95  A    between atoms: _228  and  _230
REMARK   96  A    between atoms: _230  and  _231
REMARK   97  A    between atoms: _230  and  _233
REMARK   98  A    between atoms: _235  and  _237
REMARK   99  A    between atoms: _237  and  _238
REMARK  100  A    between atoms: _237  and  _240
REMARK  101  A    between atoms: _240  and  _241
REMARK  102  A    between atoms: _241  and  _242
REMARK  103  A    between atoms: _242  and  _243
REMARK  104  A    between atoms: _252  and  _254
REMARK  105  A    between atoms: _254  and  _255
REMARK  106  A    between atoms: _254  and  _257
REMARK  107  A    between atoms: _257  and  _258
REMARK  108  A    between atoms: _258  and  _259
REMARK  109  A    between atoms: _259  and  _260
REMARK  110  A    between atoms: _260  and  _261
REMARK  111  A    between atoms: _265  and  _267
REMARK  112  A    between atoms: _267  and  _268
REMARK  113  A    between atoms: _267  and  _270
REMARK  114  A    between atoms: _270  and  _271
REMARK  115  A    between atoms: _274  and  _276
REMARK  116  A    between atoms: _276  and  _277
REMARK  117  A    between atoms: _280  and  _282
REMARK  118  A    between atoms: _282  and  _283
REMARK  119  A    between atoms: _282  and  _285
REMARK  120  A    between atoms: _288  and  _290
REMARK  121  A    between atoms: _290  and  _291
REMARK  122  A    between atoms: _290  and  _293
REMARK  123  A    between atoms: _293  and  _294
REMARK  124  A    between atoms: _299  and  _301
REMARK  125  A    between atoms: _301  and  _302
REMARK  126  A    between atoms: _301  and  _304
REMARK  127  A    between atoms: _304  and  _305
REMARK  128  A    between atoms: _311  and  _313
REMARK  129  A    between atoms: _313  and  _314
REMARK  130  A    between atoms: _313  and  _316
REMARK  131  A    between atoms: _316  and  _317
REMARK  132  A    between atoms: _320  and  _322
REMARK  133  A    between atoms: _322  and  _323
REMARK  134  A    between atoms: _326  and  _328
REMARK  135  A    between atoms: _328  and  _329
REMARK  136  A    between atoms: _328  and  _331
REMARK  137  A    between atoms: _331  and  _332
REMARK  138  A    between atoms: _334  and  _336
REMARK  139  A    between atoms: _336  and  _337
REMARK  140  A    between atoms: _336  and  _339
REMARK                            x       y       z     vdW  Elec       q    Type
REMARK                         _______ _______ _______ _____ _____    ______ ____
ROOT
ATOM      1  C   LYS A   1      32.627   8.996  10.568  0.00  0.00    +0.238 C 
ATOM      2  N   PHE A   2      31.867   8.716  11.625  0.00  0.00    -0.298 N 
ATOM      3  H   PHE A   2      31.710   9.440  12.355  0.00  0.00    +0.150 HD
ATOM      4  O   LYS A   1      32.886   8.163   9.706  0.00  0.00    -0.274 OA
ENDROOT
BRANCH   1   5
ATOM      5  CA  LYS A   1      33.175  10.421  10.460  0.00  0.00    +0.145 C 
BRANCH   5   6
ATOM      6  N   LYS A   1      32.189  11.385  10.909  0.00  0.00    -0.238 NA
ATOM      7  H   LYS A   1      32.395  11.988  11.731  0.00  0.00    +0.142 HD
ENDBRANCH   5   6
BRANCH   5   8
ATOM      8  CB  LYS A   1      34.452  10.552  11.282  0.00  0.00    +0.026 C 
BRANCH   8   9
ATOM      9  CG  LYS A   1      35.553   9.639  10.805  0.00  0.00    -0.000 C 
BRANCH   9  10
ATOM     10  CD  LYS A   1      36.770   9.796  11.669  0.00  0.00    -0.024 C 
BRANCH  10  11
ATOM     11  CE  LYS A   1      38.005   9.343  10.941  0.00  0.00    -0.086 C 
BRANCH  11  12
ATOM     12  NZ  LYS A   1      39.181   9.345  11.854  0.00  0.00    +0.380 N 
ATOM     13  HZ1 LYS A   1      39.002   8.699  12.649  0.00  0.00    -0.089 HD
ATOM     14  HZ2 LYS A   1      39.336  10.308  12.215  0.00  0.00    -0.089 HD
ATOM     15  HZ3 LYS A   1      40.024   9.029  11.333  0.00  0.00    -0.089 HD
ENDBRANCH  11  12
ENDBRANCH  10  11
ENDBRANCH   9  10
ENDBRANCH   8   9
ENDBRANCH   5   8
ENDBRANCH   1   5
BRANCH   2  16
ATOM     16  CA  PHE A   2      31.253   7.399  11.764  0.00  0.00    +0.141 C 
BRANCH  16  17
ATOM     17  C   PHE A   2      30.260   7.169  10.633  0.00  0.00    +0.227 C 
ATOM     18  O   PHE A   2      30.198   6.079  10.074  0.00  0.00    -0.286 OA
ENDBRANCH  16  17
BRANCH  16  19
ATOM     19  CB  PHE A   2      30.534   7.227  13.123  0.00  0.00    +0.054 C 
BRANCH  19  20
ATOM     20  CG  PHE A   2      29.744   5.936  13.232  0.00  0.00    -0.020 A 
ATOM     21  CD2 PHE A   2      30.318   4.797  13.789  0.00  0.00    -0.004 A 
ATOM     22  CE2 PHE A   2      29.604   3.606  13.881  0.00  0.00    -0.000 A 
ATOM     23  CZ  PHE A   2      28.305   3.543  13.424  0.00  0.00    -0.000 A 
ATOM     24  CE1 PHE A   2      27.710   4.668  12.873  0.00  0.00    -0.000 A 
ATOM     25  CD1 PHE A   2      28.429   5.863  12.785  0.00  0.00    -0.004 A 
ENDBRANCH  19  20
ENDBRANCH  16  19
ENDBRANCH   2  16
TORSDOF 11
REMARK  Name = ../refined-set-2016/4g90/4g90_pocket.pdb
REMARK  140 active torsions:
REMARK  status: ('A' for Active; 'I' for Inactive)
REMARK    1  A    between atoms: _1  and  _3
REMARK    2  A    between atoms: _3  and  _4
REMARK    3  A    between atoms: _3  and  _6
REMARK    4  A    between atoms: _6  and  _7
REMARK    5  A    between atoms: _7  and  _8
REMARK    6  A    between atoms: _11  and  _13
REMARK    7  A    between atoms: _13  and  _14
REMARK    8  A    between atoms: _17  and  _19
REMARK    9  A    between atoms: _19  and  _20
REMARK   10  A    between atoms: _19  and  _22
REMARK   11  A    between atoms: _22  and  _23
REMARK   12  A    between atoms: _23  and  _24
REMARK   13  A    between atoms: _24  and  _25
REMARK   14  A    between atoms: _25  and  _26
REMARK   15  A    between atoms: _30  and  _32
REMARK   16  A    between atoms: _32  and  _33
REMARK   17  A    between atoms: _32  and  _35
REMARK   18  A    between atoms: _35  and  _36
REMARK   19  A    between atoms: _42  and  _44
REMARK   20  A    between atoms: _44  and  _45
REMARK   21  A    between atoms: _44  and  _47
REMARK   22  A    between atoms: _47  and  _48
REMARK   23  A    between atoms: _48  and  _49
REMARK   24  A    between atoms: _49  and  _50
REMARK   25  A    between atoms: _59  and  _61
REMARK   26  A    between atoms: _61  and  _62
REMARK   27  A    between atoms: _61  and  _64
REMARK   28  A    between atoms: _64  and  _65
REMARK   29  A    between atoms: _65  and  _66
REMARK   30  A    between atoms: _71  and  _73
REMARK   31  A    between atoms: _73  and  _74
REMARK   32  A    between atoms: _73  and  _76
REMARK   33  A    between atoms: _76  and  _77
REMARK   34  A    between atoms: _82  and  _84
REMARK   35  A    between atoms: _84  and  _85
REMARK   36  A    between atoms: _84  and  _87
REMARK   37  A    between atoms: _87  and  _88
REMARK   38  A    between atoms: _88  and  _89
REMARK   39  A    between atoms: _91  and  _93
REMARK   40  A    between atoms: _93  and  _94
REMARK   41  A    between atoms: _93  and  _96
REMARK   42  A    between atoms: _96  and  _97
REMARK   43  A    between atoms: _100  and  _102
REMARK   44  A    between atoms: _102  and  _103
REMARK   45  A    between atoms: _102  and  _105
REMARK   46  A    between atoms: _105  and  _106
REMARK   47  A    between atoms: _106  and  _107
REMARK   48  A    between atoms: _107  and  _108
REMARK   49  A    between atoms: _117  and  _119
REMARK   50  A    between atoms: _119  and  _120
REMARK   51  A    between atoms: _119  and  _122
REMARK   52  A    between atoms: _122  and  _123
REMARK   53  A    between atoms: _123  and  _124
REMARK   54  A    between atoms: _124  and  _125
REMARK   55  A    between atoms: _125  and  _126
REMARK   56  A    between atoms: _131  and  _132
REMARK   57  A    between atoms: _137  and  _139
REMARK   58  A    between atoms: _139  and  _140
REMARK   59  A    between atoms: _139  and  _142
REMARK   60  A    between atoms: _145  and  _147
REMARK   61  A    between atoms: _147  and  _148
REMARK   62  A    between atoms: _147  and  _150
REMARK   63  A    between atoms: _150  and  _151
REMARK   64  A    between atoms: _156  and  _158
REMARK   65  A    between atoms: _158  and  _159
REMARK   66  A    between atoms: _158  and  _161
REMARK   67  A    between atoms: _161  and  _162
REMARK   68  A    between atoms: _165  and  _167
REMARK   69  A    between atoms: _167  and  _168
REMARK   70  A    between atoms: _167  and  _170
REMARK   71  A    between atoms: _170  and  _171
REMARK   72  A    between atoms: _177  and  _179
REMARK   73  A    between atoms: _179  and  _180
REMARK   74  A    between atoms: _179  and  _182
REMARK   75  A    between atoms: _182  and  _183
REMARK   76  A    between atoms: _183  and  _184
REMARK   77  A    between atoms: _184  and  _185
REMARK   78  A    between atoms: _185  and  _186
REMARK   79  A    between atoms: _190  and  _192
REMARK   80  A    between atoms: _192  and  _193
REMARK   81  A    between atoms: _192  and  _195
REMARK   82  A    between atoms: _195  and  _196
REMARK   83  A    between atoms: _201  and  _203
REMARK   84  A    between atoms: _203  and  _204
REMARK   85  A    between atoms: _203  and  _206
REMARK   86  A    between atoms: _206  and  _207
REMARK   87  A    between atoms: _210  and  _212
REMARK   88  A    between atoms: _212  and  _213
REMARK   89  A    between atoms: _212  and  _215
REMARK   90  A    between atoms: _215  and  _216
REMARK   91  A    between atoms: _219  and  _221
REMARK   92  A    between atoms: _221  and  _222
REMARK   93  A    between atoms: _221  and  _224
REMARK   94  A    between atoms: _224  and  _225
REMARK   95  A    between atoms: _228  and  _230
REMARK   96  A    between atoms: _230  and  _231
REMARK   97  A    between atoms: _230  and  _233
REMARK   98  A    between atoms: _235  and  _237
REMARK   99  A    between atoms: _237  and  _238
REMARK  100  A    between atoms: _237  and  _240
REMARK  101  A    between atoms: _240  and  _241
REMARK  102  A    between atoms: _241  and  _242
REMARK  103  A    between atoms: _242  and  _243
REMARK  104  A    between atoms: _252  and  _254
REMARK  105  A    between atoms: _254  and  _255
REMARK  106  A    between atoms: _254  and  _257
REMARK  107  A    between atoms: _257  and  _258
REMARK  108  A    between atoms: _258  and  _259
REMARK  109  A    between atoms: _259  and  _260
REMARK  110  A    between atoms: _260  and  _261
REMARK  111  A    between atoms: _265  and  _267
REMARK  112  A    between atoms: _267  and  _268
REMARK  113  A    between atoms: _267  and  _270
REMARK  114  A    between atoms: _270  and  _271
REMARK  115  A    between atoms: _274  and  _276
REMARK  116  A    between atoms: _276  and  _277
REMARK  117  A    between atoms: _280  and  _282
REMARK  118  A    between atoms: _282  and  _283
REMARK  119  A    between atoms: _282  and  _285
REMARK  120  A    between atoms: _288  and  _290
REMARK  121  A    between atoms: _290  and  _291
REMARK  122  A    between atoms: _290  and  _293
REMARK  123  A    between atoms: _293  and  _294
REMARK  124  A    between atoms: _299  and  _301
REMARK  125  A    between atoms: _301  and  _302
REMARK  126  A    between atoms: _301  and  _304
REMARK  127  A    between atoms: _304  and  _305
REMARK  128  A    between atoms: _311  and  _313
REMARK  129  A    between atoms: _313  and  _314
REMARK  130  A    between atoms: _313  and  _316
REMARK  131  A    between atoms: _316  and  _317
REMARK  132  A    between atoms: _320  and  _322
REMARK  133  A    between atoms: _322  and  _323
REMARK  134  A    between atoms: _326  and  _328
REMARK  135  A    between atoms: _328  and  _329
REMARK  136  A    between atoms: _328  and  _331
REMARK  137  A    between atoms: _331  and  _332
REMARK  138  A    between atoms: _334  and  _336
REMARK  139  A    between atoms: _336  and  _337
REMARK  140  A    between atoms: _336  and  _339
REMARK                            x       y       z     vdW  Elec       q    Type
REMARK                         _______ _______ _______ _____ _____    ______ ____
ROOT
ATOM      1  CA  GLN A   2      33.021   5.247   7.393  0.00  0.00    +0.149 C 
ENDROOT
BRANCH   1   3
ATOM      2  C   ARG A   1      31.750   7.016   6.330  0.00  0.00    +0.238 C 
ATOM      3  N   GLN A   2      32.321   6.533   7.431  0.00  0.00    -0.297 N 
ATOM      4  H   GLN A   2      32.270   7.070   8.320  0.00  0.00    +0.150 HD
ATOM      5  O   ARG A   1      31.703   6.375   5.284  0.00  0.00    -0.274 OA
BRANCH   2   6
ATOM      6  CA  ARG A   1      31.115   8.396   6.423  0.00  0.00    +0.145 C 
BRANCH   6   7
ATOM      7  N   ARG A   1      30.329   8.553   7.650  0.00  0.00    -0.238 NA
ATOM      8  H   ARG A   1      30.606   9.274   8.347  0.00  0.00    +0.142 HD
ENDBRANCH   6   7
BRANCH   6   9
ATOM      9  CB  ARG A   1      32.198   9.474   6.298  0.00  0.00    +0.030 C 
BRANCH   9  10
ATOM     10  CG  ARG A   1      33.093   9.258   5.072  0.00  0.00    +0.045 C 
BRANCH  10  11
ATOM     11  CD  ARG A   1      34.100  10.381   4.874  0.00  0.00    +0.174 C 
BRANCH  11  12
ATOM     12  NE  ARG A   1      34.889  10.658   6.074  0.00  0.00    -0.265 N 
ATOM     13  HE  ARG A   1      34.529  11.373   6.738  0.00  0.00    +0.259 HD
ATOM     14  CZ  ARG A   1      36.037  10.055   6.372  0.00  0.00    +0.342 C 
ATOM     15  NH2 ARG A   1      36.688  10.378   7.477  0.00  0.00    -0.292 N 
ATOM     16 HH21 ARG A   1      36.303  11.104   8.114  0.00  0.00    +0.255 HD
ATOM     17 HH22 ARG A   1      37.585   9.906   7.709  0.00  0.00    +0.255 HD
ATOM     18  NH1 ARG A   1      36.535   9.132   5.562  0.00  0.00    -0.292 N 
ATOM     19 HH11 ARG A   1      37.433   8.663   5.798  0.00  0.00    +0.255 HD
ATOM     20 HH12 ARG A   1      36.028   8.877   4.690  0.00  0.00    +0.255 HD
ENDBRANCH  11  12
ENDBRANCH  10  11
ENDBRANCH   9  10
ENDBRANCH   6   9
ENDBRANCH   2   6
ENDBRANCH   1   3
BRANCH   1  21
ATOM     21  C   GLN A   2      32.119   4.016   7.490  0.00  0.00    +0.241 C 
ATOM     22  N   HIS A   3      30.937   4.157   8.098  0.00  0.00    -0.298 N 
ATOM     23  H   HIS A   3      30.568   5.109   8.294  0.00  0.00    +0.150 HD
ATOM     24  O   GLN A   2      32.497   2.951   7.016  0.00  0.00    -0.273 OA
BRANCH  22  25
ATOM     25  CA  HIS A   3      30.158   2.983   8.490  0.00  0.00    +0.143 C 
BRANCH  25  26
ATOM     26  C   HIS A   3      28.687   2.950   8.101  0.00  0.00    +0.227 C 
ATOM     27  O   HIS A   3      28.053   1.915   8.247  0.00  0.00    -0.286 OA
ENDBRANCH  25  26
BRANCH  25  28
ATOM     28  CB  HIS A   3      30.290   2.731  10.002  0.00  0.00    +0.075 C 
BRANCH  28  29
ATOM     29  CG  HIS A   3      31.705   2.568  10.459  0.00  0.00    +0.082 A 
ATOM     30  CD2 HIS A   3      32.470   3.332  11.270  0.00  0.00    +0.115 A 
ATOM     31  NE2 HIS A   3      33.704   2.734  11.342  0.00  0.00    -0.221 NA
ATOM     32  CE1 HIS A   3      33.690   1.631  10.617  0.00  0.00    +0.199 A 
ATOM     33  ND1 HIS A   3      32.496   1.509  10.065  0.00  0.00    -0.227 NA
ENDBRANCH  28  29
ENDBRANCH  25  28
ENDBRANCH  22  25
ENDBRANCH   1  21
BRANCH   1  34
ATOM     34  CB  GLN A   2      34.071   5.173   8.497  0.00  0.00    +0.039 C 
BRANCH  34  35
ATOM     35  CG  GLN A   2      35.169   6.209   8.386  0.00  0.00    +0.087 C 
BRANCH  35  36
ATOM     36  CD  GLN A   2      36.256   5.995   9.424  0.00  0.00    +0.219 C 
ATOM     37  OE1 GLN A   2      35.968   5.634  10.561  0.00  0.00    -0.275 OA
ATOM     38  NE2 GLN A   2      37.512   6.197   9.029  0.00  0.00    -0.329 N 
ATOM     39 HE21 GLN A   2      38.297   6.049   9.695  0.00  0.00    +0.145 HD
ATOM     40 HE22 GLN A   2      37.708   6.503   8.055  0.00  0.00    +0.145 HD
ENDBRANCH  35  36
ENDBRANCH  34  35
ENDBRANCH   1  34
TORSDOF 15
REMARK  Name = ../refined-set-2016/4g90/4g90_pocket.pdb
REMARK  140 active torsions:
REMARK  status: ('A' for Active; 'I' for Inactive)
REMARK    1  A    between atoms: _1  and  _3
REMARK    2  A    between atoms: _3  and  _4
REMARK    3  A    between atoms: _3  and  _6
REMARK    4  A    between atoms: _6  and  _7
REMARK    5  A    between atoms: _7  and  _8
REMARK    6  A    between atoms: _11  and  _13
REMARK    7  A    between atoms: _13  and  _14
REMARK    8  A    between atoms: _17  and  _19
REMARK    9  A    between atoms: _19  and  _20
REMARK   10  A    between atoms: _19  and  _22
REMARK   11  A    between atoms: _22  and  _23
REMARK   12  A    between atoms: _23  and  _24
REMARK   13  A    between atoms: _24  and  _25
REMARK   14  A    between atoms: _25  and  _26
REMARK   15  A    between atoms: _30  and  _32
REMARK   16  A    between atoms: _32  and  _33
REMARK   17  A    between atoms: _32  and  _35
REMARK   18  A    between atoms: _35  and  _36
REMARK   19  A    between atoms: _42  and  _44
REMARK   20  A    between atoms: _44  and  _45
REMARK   21  A    between atoms: _44  and  _47
REMARK   22  A    between atoms: _47  and  _48
REMARK   23  A    between atoms: _48  and  _49
REMARK   24  A    between atoms: _49  and  _50
REMARK   25  A    between atoms: _59  and  _61
REMARK   26  A    between atoms: _61  and  _62
REMARK   27  A    between atoms: _61  and  _64
REMARK   28  A    between atoms: _64  and  _65
REMARK   29  A    between atoms: _65  and  _66
REMARK   30  A    between atoms: _71  and  _73
REMARK   31  A    between atoms: _73  and  _74
REMARK   32  A    between atoms: _73  and  _76
REMARK   33  A    between atoms: _76  and  _77
REMARK   34  A    between atoms: _82  and  _84
REMARK   35  A    between atoms: _84  and  _85
REMARK   36  A    between atoms: _84  and  _87
REMARK   37  A    between atoms: _87  and  _88
REMARK   38  A    between atoms: _88  and  _89
REMARK   39  A    between atoms: _91  and  _93
REMARK   40  A    between atoms: _93  and  _94
REMARK   41  A    between atoms: _93  and  _96
REMARK   42  A    between atoms: _96  and  _97
REMARK   43  A    between atoms: _100  and  _102
REMARK   44  A    between atoms: _102  and  _103
REMARK   45  A    between atoms: _102  and  _105
REMARK   46  A    between atoms: _105  and  _106
REMARK   47  A    between atoms: _106  and  _107
REMARK   48  A    between atoms: _107  and  _108
REMARK   49  A    between atoms: _117  and  _119
REMARK   50  A    between atoms: _119  and  _120
REMARK   51  A    between atoms: _119  and  _122
REMARK   52  A    between atoms: _122  and  _123
REMARK   53  A    between atoms: _123  and  _124
REMARK   54  A    between atoms: _124  and  _125
REMARK   55  A    between atoms: _125  and  _126
REMARK   56  A    between atoms: _131  and  _132
REMARK   57  A    between atoms: _137  and  _139
REMARK   58  A    between atoms: _139  and  _140
REMARK   59  A    between atoms: _139  and  _142
REMARK   60  A    between atoms: _145  and  _147
REMARK   61  A    between atoms: _147  and  _148
REMARK   62  A    between atoms: _147  and  _150
REMARK   63  A    between atoms: _150  and  _151
REMARK   64  A    between atoms: _156  and  _158
REMARK   65  A    between atoms: _158  and  _159
REMARK   66  A    between atoms: _158  and  _161
REMARK   67  A    between atoms: _161  and  _162
REMARK   68  A    between atoms: _165  and  _167
REMARK   69  A    between atoms: _167  and  _168
REMARK   70  A    between atoms: _167  and  _170
REMARK   71  A    between atoms: _170  and  _171
REMARK   72  A    between atoms: _177  and  _179
REMARK   73  A    between atoms: _179  and  _180
REMARK   74  A    between atoms: _179  and  _182
REMARK   75  A    between atoms: _182  and  _183
REMARK   76  A    between atoms: _183  and  _184
REMARK   77  A    between atoms: _184  and  _185
REMARK   78  A    between atoms: _185  and  _186
REMARK   79  A    between atoms: _190  and  _192
REMARK   80  A    between atoms: _192  and  _193
REMARK   81  A    between atoms: _192  and  _195
REMARK   82  A    between atoms: _195  and  _196
REMARK   83  A    between atoms: _201  and  _203
REMARK   84  A    between atoms: _203  and  _204
REMARK   85  A    between atoms: _203  and  _206
REMARK   86  A    between atoms: _206  and  _207
REMARK   87  A    between atoms: _210  and  _212
REMARK   88  A    between atoms: _212  and  _213
REMARK   89  A    between atoms: _212  and  _215
REMARK   90  A    between atoms: _215  and  _216
REMARK   91  A    between atoms: _219  and  _221
REMARK   92  A    between atoms: _221  and  _222
REMARK   93  A    between atoms: _221  and  _224
REMARK   94  A    between atoms: _224  and  _225
REMARK   95  A    between atoms: _228  and  _230
REMARK   96  A    between atoms: _230  and  _231
REMARK   97  A    between atoms: _230  and  _233
REMARK   98  A    between atoms: _235  and  _237
REMARK   99  A    between atoms: _237  and  _238
REMARK  100  A    between atoms: _237  and  _240
REMARK  101  A    between atoms: _240  and  _241
REMARK  102  A    between atoms: _241  and  _242
REMARK  103  A    between atoms: _242  and  _243
REMARK  104  A    between atoms: _252  and  _254
REMARK  105  A    between atoms: _254  and  _255
REMARK  106  A    between atoms: _254  and  _257
REMARK  107  A    between atoms: _257  and  _258
REMARK  108  A    between atoms: _258  and  _259
REMARK  109  A    between atoms: _259  and  _260
REMARK  110  A    between atoms: _260  and  _261
REMARK  111  A    between atoms: _265  and  _267
REMARK  112  A    between atoms: _267  and  _268
REMARK  113  A    between atoms: _267  and  _270
REMARK  114  A    between atoms: _270  and  _271
REMARK  115  A    between atoms: _274  and  _276
REMARK  116  A    between atoms: _276  and  _277
REMARK  117  A    between atoms: _280  and  _282
REMARK  118  A    between atoms: _282  and  _283
REMARK  119  A    between atoms: _282  and  _285
REMARK  120  A    between atoms: _288  and  _290
REMARK  121  A    between atoms: _290  and  _291
REMARK  122  A    between atoms: _290  and  _293
REMARK  123  A    between atoms: _293  and  _294
REMARK  124  A    between atoms: _299  and  _301
REMARK  125  A    between atoms: _301  and  _302
REMARK  126  A    between atoms: _301  and  _304
REMARK  127  A    between atoms: _304  and  _305
REMARK  128  A    between atoms: _311  and  _313
REMARK  129  A    between atoms: _313  and  _314
REMARK  130  A    between atoms: _313  and  _316
REMARK  131  A    between atoms: _316  and  _317
REMARK  132  A    between atoms: _320  and  _322
REMARK  133  A    between atoms: _322  and  _323
REMARK  134  A    between atoms: _326  and  _328
REMARK  135  A    between atoms: _328  and  _329
REMARK  136  A    between atoms: _328  and  _331
REMARK  137  A    between atoms: _331  and  _332
REMARK  138  A    between atoms: _334  and  _336
REMARK  139  A    between atoms: _336  and  _337
REMARK  140  A    between atoms: _336  and  _339
REMARK                            x       y       z     vdW  Elec       q    Type
REMARK                         _______ _______ _______ _____ _____    ______ ____
ROOT
ATOM      1  CA  MET A   1      36.227   1.929   0.444  0.00  0.00    +0.134 C 
ENDROOT
BRANCH   1   2
ATOM      2  N   MET A   1      35.026   1.536  -0.293  0.00  0.00    -0.239 NA
ATOM      3  H   MET A   1      34.937   0.567  -0.659  0.00  0.00    +0.142 HD
ENDBRANCH   1   2
BRANCH   1   4
ATOM      4  C   MET A   1      36.896   3.127  -0.220  0.00  0.00    +0.224 C 
ATOM      5  O   MET A   1      37.414   4.007   0.452  0.00  0.00    -0.287 OA
ENDBRANCH   1   4
BRANCH   1   6
ATOM      6  CB  MET A   1      37.230   0.775   0.576  0.00  0.00    +0.037 C 
BRANCH   6   7
ATOM      7  CG  MET A   1      36.716  -0.411   1.388  0.00  0.00    +0.059 C 
BRANCH   7   8
ATOM      8  SD  MET A   1      36.380  -0.001   3.113  0.00  0.00    -0.139 S 
ATOM      9  CE  MET A   1      38.054   0.251   3.714  0.00  0.00    +0.069 C 
ENDBRANCH   7   8
ENDBRANCH   6   7
ENDBRANCH   1   6
TORSDOF 5
REMARK  Name = ../refined-set-2016/4g90/4g90_pocket.pdb
REMARK  140 active torsions:
REMARK  status: ('A' for Active; 'I' for Inactive)
REMARK    1  A    between atoms: _1  and  _3
REMARK    2  A    between atoms: _3  and  _4
REMARK    3  A    between atoms: _3  and  _6
REMARK    4  A    between atoms: _6  and  _7
REMARK    5  A    between atoms: _7  and  _8
REMARK    6  A    between atoms: _11  and  _13
REMARK    7  A    between atoms: _13  and  _14
REMARK    8  A    between atoms: _17  and  _19
REMARK    9  A    between atoms: _19  and  _20
REMARK   10  A    between atoms: _19  and  _22
REMARK   11  A    between atoms: _22  and  _23
REMARK   12  A    between atoms: _23  and  _24
REMARK   13  A    between atoms: _24  and  _25
REMARK   14  A    between atoms: _25  and  _26
REMARK   15  A    between atoms: _30  and  _32
REMARK   16  A    between atoms: _32  and  _33
REMARK   17  A    between atoms: _32  and  _35
REMARK   18  A    between atoms: _35  and  _36
REMARK   19  A    between atoms: _42  and  _44
REMARK   20  A    between atoms: _44  and  _45
REMARK   21  A    between atoms: _44  and  _47
REMARK   22  A    between atoms: _47  and  _48
REMARK   23  A    between atoms: _48  and  _49
REMARK   24  A    between atoms: _49  and  _50
REMARK   25  A    between atoms: _59  and  _61
REMARK   26  A    between atoms: _61  and  _62
REMARK   27  A    between atoms: _61  and  _64
REMARK   28  A    between atoms: _64  and  _65
REMARK   29  A    between atoms: _65  and  _66
REMARK   30  A    between atoms: _71  and  _73
REMARK   31  A    between atoms: _73  and  _74
REMARK   32  A    between atoms: _73  and  _76
REMARK   33  A    between atoms: _76  and  _77
REMARK   34  A    between atoms: _82  and  _84
REMARK   35  A    between atoms: _84  and  _85
REMARK   36  A    between atoms: _84  and  _87
REMARK   37  A    between atoms: _87  and  _88
REMARK   38  A    between atoms: _88  and  _89
REMARK   39  A    between atoms: _91  and  _93
REMARK   40  A    between atoms: _93  and  _94
REMARK   41  A    between atoms: _93  and  _96
REMARK   42  A    between atoms: _96  and  _97
REMARK   43  A    between atoms: _100  and  _102
REMARK   44  A    between atoms: _102  and  _103
REMARK   45  A    between atoms: _102  and  _105
REMARK   46  A    between atoms: _105  and  _106
REMARK   47  A    between atoms: _106  and  _107
REMARK   48  A    between atoms: _107  and  _108
REMARK   49  A    between atoms: _117  and  _119
REMARK   50  A    between atoms: _119  and  _120
REMARK   51  A    between atoms: _119  and  _122
REMARK   52  A    between atoms: _122  and  _123
REMARK   53  A    between atoms: _123  and  _124
REMARK   54  A    between atoms: _124  and  _125
REMARK   55  A    between atoms: _125  and  _126
REMARK   56  A    between atoms: _131  and  _132
REMARK   57  A    between atoms: _137  and  _139
REMARK   58  A    between atoms: _139  and  _140
REMARK   59  A    between atoms: _139  and  _142
REMARK   60  A    between atoms: _145  and  _147
REMARK   61  A    between atoms: _147  and  _148
REMARK   62  A    between atoms: _147  and  _150
REMARK   63  A    between atoms: _150  and  _151
REMARK   64  A    between atoms: _156  and  _158
REMARK   65  A    between atoms: _158  and  _159
REMARK   66  A    between atoms: _158  and  _161
REMARK   67  A    between atoms: _161  and  _162
REMARK   68  A    between atoms: _165  and  _167
REMARK   69  A    between atoms: _167  and  _168
REMARK   70  A    between atoms: _167  and  _170
REMARK   71  A    between atoms: _170  and  _171
REMARK   72  A    between atoms: _177  and  _179
REMARK   73  A    between atoms: _179  and  _180
REMARK   74  A    between atoms: _179  and  _182
REMARK   75  A    between atoms: _182  and  _183
REMARK   76  A    between atoms: _183  and  _184
REMARK   77  A    between atoms: _184  and  _185
REMARK   78  A    between atoms: _185  and  _186
REMARK   79  A    between atoms: _190  and  _192
REMARK   80  A    between atoms: _192  and  _193
REMARK   81  A    between atoms: _192  and  _195
REMARK   82  A    between atoms: _195  and  _196
REMARK   83  A    between atoms: _201  and  _203
REMARK   84  A    between atoms: _203  and  _204
REMARK   85  A    between atoms: _203  and  _206
REMARK   86  A    between atoms: _206  and  _207
REMARK   87  A    between atoms: _210  and  _212
REMARK   88  A    between atoms: _212  and  _213
REMARK   89  A    between atoms: _212  and  _215
REMARK   90  A    between atoms: _215  and  _216
REMARK   91  A    between atoms: _219  and  _221
REMARK   92  A    between atoms: _221  and  _222
REMARK   93  A    between atoms: _221  and  _224
REMARK   94  A    between atoms: _224  and  _225
REMARK   95  A    between atoms: _228  and  _230
REMARK   96  A    between atoms: _230  and  _231
REMARK   97  A    between atoms: _230  and  _233
REMARK   98  A    between atoms: _235  and  _237
REMARK   99  A    between atoms: _237  and  _238
REMARK  100  A    between atoms: _237  and  _240
REMARK  101  A    between atoms: _240  and  _241
REMARK  102  A    between atoms: _241  and  _242
REMARK  103  A    between atoms: _242  and  _243
REMARK  104  A    between atoms: _252  and  _254
REMARK  105  A    between atoms: _254  and  _255
REMARK  106  A    between atoms: _254  and  _257
REMARK  107  A    between atoms: _257  and  _258
REMARK  108  A    between atoms: _258  and  _259
REMARK  109  A    between atoms: _259  and  _260
REMARK  110  A    between atoms: _260  and  _261
REMARK  111  A    between atoms: _265  and  _267
REMARK  112  A    between atoms: _267  and  _268
REMARK  113  A    between atoms: _267  and  _270
REMARK  114  A    between atoms: _270  and  _271
REMARK  115  A    between atoms: _274  and  _276
REMARK  116  A    between atoms: _276  and  _277
REMARK  117  A    between atoms: _280  and  _282
REMARK  118  A    between atoms: _282  and  _283
REMARK  119  A    between atoms: _282  and  _285
REMARK  120  A    between atoms: _288  and  _290
REMARK  121  A    between atoms: _290  and  _291
REMARK  122  A    between atoms: _290  and  _293
REMARK  123  A    between atoms: _293  and  _294
REMARK  124  A    between atoms: _299  and  _301
REMARK  125  A    between atoms: _301  and  _302
REMARK  126  A    between atoms: _301  and  _304
REMARK  127  A    between atoms: _304  and  _305
REMARK  128  A    between atoms: _311  and  _313
REMARK  129  A    between atoms: _313  and  _314
REMARK  130  A    between atoms: _313  and  _316
REMARK  131  A    between atoms: _316  and  _317
REMARK  132  A    between atoms: _320  and  _322
REMARK  133  A    between atoms: _322  and  _323
REMARK  134  A    between atoms: _326  and  _328
REMARK  135  A    between atoms: _328  and  _329
REMARK  136  A    between atoms: _328  and  _331
REMARK  137  A    between atoms: _331  and  _332
REMARK  138  A    between atoms: _334  and  _336
REMARK  139  A    between atoms: _336  and  _337
REMARK  140  A    between atoms: _336  and  _339
REMARK                            x       y       z     vdW  Elec       q    Type
REMARK                         _______ _______ _______ _____ _____    ______ ____
ROOT
ATOM      1  CA  LEU A   1      39.169   5.054   3.292  0.00  0.00    +0.133 C 
ENDROOT
BRANCH   1   2
ATOM      2  N   LEU A   1      38.452   5.913   2.360  0.00  0.00    -0.239 NA
ATOM      3  H   LEU A   1      37.798   5.482   1.676  0.00  0.00    +0.142 HD
ENDBRANCH   1   2
BRANCH   1   4
ATOM      4  C   LEU A   1      40.423   4.455   2.642  0.00  0.00    +0.224 C 
ATOM      5  O   LEU A   1      41.124   3.664   3.256  0.00  0.00    -0.287 OA
ENDBRANCH   1   4
BRANCH   1   6
ATOM      6  CB  LEU A   1      38.238   3.951   3.816  0.00  0.00    +0.025 C 
BRANCH   6   7
ATOM      7  CG  LEU A   1      36.908   4.507   4.341  0.00  0.00    +0.002 C 
ATOM      8  CD2 LEU A   1      37.192   5.510   5.451  0.00  0.00    +0.000 C 
ATOM      9  CD1 LEU A   1      35.969   3.409   4.829  0.00  0.00    +0.000 C 
ENDBRANCH   6   7
ENDBRANCH   1   6
TORSDOF 4
REMARK  Name = ../refined-set-2016/4g90/4g90_pocket.pdb
REMARK  140 active torsions:
REMARK  status: ('A' for Active; 'I' for Inactive)
REMARK    1  A    between atoms: _1  and  _3
REMARK    2  A    between atoms: _3  and  _4
REMARK    3  A    between atoms: _3  and  _6
REMARK    4  A    between atoms: _6  and  _7
REMARK    5  A    between atoms: _7  and  _8
REMARK    6  A    between atoms: _11  and  _13
REMARK    7  A    between atoms: _13  and  _14
REMARK    8  A    between atoms: _17  and  _19
REMARK    9  A    between atoms: _19  and  _20
REMARK   10  A    between atoms: _19  and  _22
REMARK   11  A    between atoms: _22  and  _23
REMARK   12  A    between atoms: _23  and  _24
REMARK   13  A    between atoms: _24  and  _25
REMARK   14  A    between atoms: _25  and  _26
REMARK   15  A    between atoms: _30  and  _32
REMARK   16  A    between atoms: _32  and  _33
REMARK   17  A    between atoms: _32  and  _35
REMARK   18  A    between atoms: _35  and  _36
REMARK   19  A    between atoms: _42  and  _44
REMARK   20  A    between atoms: _44  and  _45
REMARK   21  A    between atoms: _44  and  _47
REMARK   22  A    between atoms: _47  and  _48
REMARK   23  A    between atoms: _48  and  _49
REMARK   24  A    between atoms: _49  and  _50
REMARK   25  A    between atoms: _59  and  _61
REMARK   26  A    between atoms: _61  and  _62
REMARK   27  A    between atoms: _61  and  _64
REMARK   28  A    between atoms: _64  and  _65
REMARK   29  A    between atoms: _65  and  _66
REMARK   30  A    between atoms: _71  and  _73
REMARK   31  A    between atoms: _73  and  _74
REMARK   32  A    between atoms: _73  and  _76
REMARK   33  A    between atoms: _76  and  _77
REMARK   34  A    between atoms: _82  and  _84
REMARK   35  A    between atoms: _84  and  _85
REMARK   36  A    between atoms: _84  and  _87
REMARK   37  A    between atoms: _87  and  _88
REMARK   38  A    between atoms: _88  and  _89
REMARK   39  A    between atoms: _91  and  _93
REMARK   40  A    between atoms: _93  and  _94
REMARK   41  A    between atoms: _93  and  _96
REMARK   42  A    between atoms: _96  and  _97
REMARK   43  A    between atoms: _100  and  _102
REMARK   44  A    between atoms: _102  and  _103
REMARK   45  A    between atoms: _102  and  _105
REMARK   46  A    between atoms: _105  and  _106
REMARK   47  A    between atoms: _106  and  _107
REMARK   48  A    between atoms: _107  and  _108
REMARK   49  A    between atoms: _117  and  _119
REMARK   50  A    between atoms: _119  and  _120
REMARK   51  A    between atoms: _119  and  _122
REMARK   52  A    between atoms: _122  and  _123
REMARK   53  A    between atoms: _123  and  _124
REMARK   54  A    between atoms: _124  and  _125
REMARK   55  A    between atoms: _125  and  _126
REMARK   56  A    between atoms: _131  and  _132
REMARK   57  A    between atoms: _137  and  _139
REMARK   58  A    between atoms: _139  and  _140
REMARK   59  A    between atoms: _139  and  _142
REMARK   60  A    between atoms: _145  and  _147
REMARK   61  A    between atoms: _147  and  _148
REMARK   62  A    between atoms: _147  and  _150
REMARK   63  A    between atoms: _150  and  _151
REMARK   64  A    between atoms: _156  and  _158
REMARK   65  A    between atoms: _158  and  _159
REMARK   66  A    between atoms: _158  and  _161
REMARK   67  A    between atoms: _161  and  _162
REMARK   68  A    between atoms: _165  and  _167
REMARK   69  A    between atoms: _167  and  _168
REMARK   70  A    between atoms: _167  and  _170
REMARK   71  A    between atoms: _170  and  _171
REMARK   72  A    between atoms: _177  and  _179
REMARK   73  A    between atoms: _179  and  _180
REMARK   74  A    between atoms: _179  and  _182
REMARK   75  A    between atoms: _182  and  _183
REMARK   76  A    between atoms: _183  and  _184
REMARK   77  A    between atoms: _184  and  _185
REMARK   78  A    between atoms: _185  and  _186
REMARK   79  A    between atoms: _190  and  _192
REMARK   80  A    between atoms: _192  and  _193
REMARK   81  A    between atoms: _192  and  _195
REMARK   82  A    between atoms: _195  and  _196
REMARK   83  A    between atoms: _201  and  _203
REMARK   84  A    between atoms: _203  and  _204
REMARK   85  A    between atoms: _203  and  _206
REMARK   86  A    between atoms: _206  and  _207
REMARK   87  A    between atoms: _210  and  _212
REMARK   88  A    between atoms: _212  and  _213
REMARK   89  A    between atoms: _212  and  _215
REMARK   90  A    between atoms: _215  and  _216
REMARK   91  A    between atoms: _219  and  _221
REMARK   92  A    between atoms: _221  and  _222
REMARK   93  A    between atoms: _221  and  _224
REMARK   94  A    between atoms: _224  and  _225
REMARK   95  A    between atoms: _228  and  _230
REMARK   96  A    between atoms: _230  and  _231
REMARK   97  A    between atoms: _230  and  _233
REMARK   98  A    between atoms: _235  and  _237
REMARK   99  A    between atoms: _237  and  _238
REMARK  100  A    between atoms: _237  and  _240
REMARK  101  A    between atoms: _240  and  _241
REMARK  102  A    between atoms: _241  and  _242
REMARK  103  A    between atoms: _242  and  _243
REMARK  104  A    between atoms: _252  and  _254
REMARK  105  A    between atoms: _254  and  _255
REMARK  106  A    between atoms: _254  and  _257
REMARK  107  A    between atoms: _257  and  _258
REMARK  108  A    between atoms: _258  and  _259
REMARK  109  A    between atoms: _259  and  _260
REMARK  110  A    between atoms: _260  and  _261
REMARK  111  A    between atoms: _265  and  _267
REMARK  112  A    between atoms: _267  and  _268
REMARK  113  A    between atoms: _267  and  _270
REMARK  114  A    between atoms: _270  and  _271
REMARK  115  A    between atoms: _274  and  _276
REMARK  116  A    between atoms: _276  and  _277
REMARK  117  A    between atoms: _280  and  _282
REMARK  118  A    between atoms: _282  and  _283
REMARK  119  A    between atoms: _282  and  _285
REMARK  120  A    between atoms: _288  and  _290
REMARK  121  A    between atoms: _290  and  _291
REMARK  122  A    between atoms: _290  and  _293
REMARK  123  A    between atoms: _293  and  _294
REMARK  124  A    between atoms: _299  and  _301
REMARK  125  A    between atoms: _301  and  _302
REMARK  126  A    between atoms: _301  and  _304
REMARK  127  A    between atoms: _304  and  _305
REMARK  128  A    between atoms: _311  and  _313
REMARK  129  A    between atoms: _313  and  _314
REMARK  130  A    between atoms: _313  and  _316
REMARK  131  A    between atoms: _316  and  _317
REMARK  132  A    between atoms: _320  and  _322
REMARK  133  A    between atoms: _322  and  _323
REMARK  134  A    between atoms: _326  and  _328
REMARK  135  A    between atoms: _328  and  _329
REMARK  136  A    between atoms: _328  and  _331
REMARK  137  A    between atoms: _331  and  _332
REMARK  138  A    between atoms: _334  and  _336
REMARK  139  A    between atoms: _336  and  _337
REMARK  140  A    between atoms: _336  and  _339
REMARK                            x       y       z     vdW  Elec       q    Type
REMARK                         _______ _______ _______ _____ _____    ______ ____
ROOT
ATOM      1  NE  ARG A   1      45.585   2.784   7.581  0.00  0.00    -0.265 N 
ATOM      2  CZ  ARG A   1      45.324   1.898   8.537  0.00  0.00    +0.342 C 
ATOM      3  NH2 ARG A   1      44.317   2.109   9.374  0.00  0.00    -0.292 N 
ATOM      4 HH21 ARG A   1      44.110   1.418  10.123  0.00  0.00    +0.255 HD
ATOM      5 HH22 ARG A   1      43.734   2.966   9.281  0.00  0.00    +0.255 HD
ATOM      6  NH1 ARG A   1      46.062   0.804   8.656  0.00  0.00    -0.292 N 
ATOM      7 HH11 ARG A   1      45.853   0.115   9.406  0.00  0.00    +0.255 HD
ATOM      8 HH12 ARG A   1      46.851   0.635   7.999  0.00  0.00    +0.255 HD
ATOM      9  HE  ARG A   1      44.983   3.631   7.533  0.00  0.00    +0.259 HD
ENDROOT
BRANCH   1  10
ATOM     10  CD  ARG A   1      46.655   2.659   6.591  0.00  0.00    +0.174 C 
BRANCH  10  11
ATOM     11  CG  ARG A   1      46.150   3.137   5.240  0.00  0.00    +0.045 C 
BRANCH  11  12
ATOM     12  CB  ARG A   1      47.247   3.360   4.219  0.00  0.00    +0.029 C 
BRANCH  12  13
ATOM     13  CA  ARG A   1      46.708   3.769   2.848  0.00  0.00    +0.133 C 
BRANCH  13  14
ATOM     14  N   ARG A   1      46.329   5.177   2.828  0.00  0.00    -0.239 NA
ATOM     15  H   ARG A   1      45.320   5.419   2.892  0.00  0.00    +0.142 HD
ENDBRANCH  13  14
BRANCH  13  16
ATOM     16  C   ARG A   1      45.456   2.955   2.551  0.00  0.00    +0.224 C 
ATOM     17  O   ARG A   1      44.357   3.496   2.475  0.00  0.00    -0.287 OA
ENDBRANCH  13  16
ENDBRANCH  12  13
ENDBRANCH  11  12
ENDBRANCH  10  11
ENDBRANCH   1  10
TORSDOF 6
REMARK  Name = ../refined-set-2016/4g90/4g90_pocket.pdb
REMARK  140 active torsions:
REMARK  status: ('A' for Active; 'I' for Inactive)
REMARK    1  A    between atoms: _1  and  _3
REMARK    2  A    between atoms: _3  and  _4
REMARK    3  A    between atoms: _3  and  _6
REMARK    4  A    between atoms: _6  and  _7
REMARK    5  A    between atoms: _7  and  _8
REMARK    6  A    between atoms: _11  and  _13
REMARK    7  A    between atoms: _13  and  _14
REMARK    8  A    between atoms: _17  and  _19
REMARK    9  A    between atoms: _19  and  _20
REMARK   10  A    between atoms: _19  and  _22
REMARK   11  A    between atoms: _22  and  _23
REMARK   12  A    between atoms: _23  and  _24
REMARK   13  A    between atoms: _24  and  _25
REMARK   14  A    between atoms: _25  and  _26
REMARK   15  A    between atoms: _30  and  _32
REMARK   16  A    between atoms: _32  and  _33
REMARK   17  A    between atoms: _32  and  _35
REMARK   18  A    between atoms: _35  and  _36
REMARK   19  A    between atoms: _42  and  _44
REMARK   20  A    between atoms: _44  and  _45
REMARK   21  A    between atoms: _44  and  _47
REMARK   22  A    between atoms: _47  and  _48
REMARK   23  A    between atoms: _48  and  _49
REMARK   24  A    between atoms: _49  and  _50
REMARK   25  A    between atoms: _59  and  _61
REMARK   26  A    between atoms: _61  and  _62
REMARK   27  A    between atoms: _61  and  _64
REMARK   28  A    between atoms: _64  and  _65
REMARK   29  A    between atoms: _65  and  _66
REMARK   30  A    between atoms: _71  and  _73
REMARK   31  A    between atoms: _73  and  _74
REMARK   32  A    between atoms: _73  and  _76
REMARK   33  A    between atoms: _76  and  _77
REMARK   34  A    between atoms: _82  and  _84
REMARK   35  A    between atoms: _84  and  _85
REMARK   36  A    between atoms: _84  and  _87
REMARK   37  A    between atoms: _87  and  _88
REMARK   38  A    between atoms: _88  and  _89
REMARK   39  A    between atoms: _91  and  _93
REMARK   40  A    between atoms: _93  and  _94
REMARK   41  A    between atoms: _93  and  _96
REMARK   42  A    between atoms: _96  and  _97
REMARK   43  A    between atoms: _100  and  _102
REMARK   44  A    between atoms: _102  and  _103
REMARK   45  A    between atoms: _102  and  _105
REMARK   46  A    between atoms: _105  and  _106
REMARK   47  A    between atoms: _106  and  _107
REMARK   48  A    between atoms: _107  and  _108
REMARK   49  A    between atoms: _117  and  _119
REMARK   50  A    between atoms: _119  and  _120
REMARK   51  A    between atoms: _119  and  _122
REMARK   52  A    between atoms: _122  and  _123
REMARK   53  A    between atoms: _123  and  _124
REMARK   54  A    between atoms: _124  and  _125
REMARK   55  A    between atoms: _125  and  _126
REMARK   56  A    between atoms: _131  and  _132
REMARK   57  A    between atoms: _137  and  _139
REMARK   58  A    between atoms: _139  and  _140
REMARK   59  A    between atoms: _139  and  _142
REMARK   60  A    between atoms: _145  and  _147
REMARK   61  A    between atoms: _147  and  _148
REMARK   62  A    between atoms: _147  and  _150
REMARK   63  A    between atoms: _150  and  _151
REMARK   64  A    between atoms: _156  and  _158
REMARK   65  A    between atoms: _158  and  _159
REMARK   66  A    between atoms: _158  and  _161
REMARK   67  A    between atoms: _161  and  _162
REMARK   68  A    between atoms: _165  and  _167
REMARK   69  A    between atoms: _167  and  _168
REMARK   70  A    between atoms: _167  and  _170
REMARK   71  A    between atoms: _170  and  _171
REMARK   72  A    between atoms: _177  and  _179
REMARK   73  A    between atoms: _179  and  _180
REMARK   74  A    between atoms: _179  and  _182
REMARK   75  A    between atoms: _182  and  _183
REMARK   76  A    between atoms: _183  and  _184
REMARK   77  A    between atoms: _184  and  _185
REMARK   78  A    between atoms: _185  and  _186
REMARK   79  A    between atoms: _190  and  _192
REMARK   80  A    between atoms: _192  and  _193
REMARK   81  A    between atoms: _192  and  _195
REMARK   82  A    between atoms: _195  and  _196
REMARK   83  A    between atoms: _201  and  _203
REMARK   84  A    between atoms: _203  and  _204
REMARK   85  A    between atoms: _203  and  _206
REMARK   86  A    between atoms: _206  and  _207
REMARK   87  A    between atoms: _210  and  _212
REMARK   88  A    between atoms: _212  and  _213
REMARK   89  A    between atoms: _212  and  _215
REMARK   90  A    between atoms: _215  and  _216
REMARK   91  A    between atoms: _219  and  _221
REMARK   92  A    between atoms: _221  and  _222
REMARK   93  A    between atoms: _221  and  _224
REMARK   94  A    between atoms: _224  and  _225
REMARK   95  A    between atoms: _228  and  _230
REMARK   96  A    between atoms: _230  and  _231
REMARK   97  A    between atoms: _230  and  _233
REMARK   98  A    between atoms: _235  and  _237
REMARK   99  A    between atoms: _237  and  _238
REMARK  100  A    between atoms: _237  and  _240
REMARK  101  A    between atoms: _240  and  _241
REMARK  102  A    between atoms: _241  and  _242
REMARK  103  A    between atoms: _242  and  _243
REMARK  104  A    between atoms: _252  and  _254
REMARK  105  A    between atoms: _254  and  _255
REMARK  106  A    between atoms: _254  and  _257
REMARK  107  A    between atoms: _257  and  _258
REMARK  108  A    between atoms: _258  and  _259
REMARK  109  A    between atoms: _259  and  _260
REMARK  110  A    between atoms: _260  and  _261
REMARK  111  A    between atoms: _265  and  _267
REMARK  112  A    between atoms: _267  and  _268
REMARK  113  A    between atoms: _267  and  _270
REMARK  114  A    between atoms: _270  and  _271
REMARK  115  A    between atoms: _274  and  _276
REMARK  116  A    between atoms: _276  and  _277
REMARK  117  A    between atoms: _280  and  _282
REMARK  118  A    between atoms: _282  and  _283
REMARK  119  A    between atoms: _282  and  _285
REMARK  120  A    between atoms: _288  and  _290
REMARK  121  A    between atoms: _290  and  _291
REMARK  122  A    between atoms: _290  and  _293
REMARK  123  A    between atoms: _293  and  _294
REMARK  124  A    between atoms: _299  and  _301
REMARK  125  A    between atoms: _301  and  _302
REMARK  126  A    between atoms: _301  and  _304
REMARK  127  A    between atoms: _304  and  _305
REMARK  128  A    between atoms: _311  and  _313
REMARK  129  A    between atoms: _313  and  _314
REMARK  130  A    between atoms: _313  and  _316
REMARK  131  A    between atoms: _316  and  _317
REMARK  132  A    between atoms: _320  and  _322
REMARK  133  A    between atoms: _322  and  _323
REMARK  134  A    between atoms: _326  and  _328
REMARK  135  A    between atoms: _328  and  _329
REMARK  136  A    between atoms: _328  and  _331
REMARK  137  A    between atoms: _331  and  _332
REMARK  138  A    between atoms: _334  and  _336
REMARK  139  A    between atoms: _336  and  _337
REMARK  140  A    between atoms: _336  and  _339
REMARK                            x       y       z     vdW  Elec       q    Type
REMARK                         _______ _______ _______ _____ _____    ______ ____
ROOT
ATOM      1  C   VAL A   3      38.181  -2.571   7.934  0.00  0.00    +0.241 C 
ATOM      2  O   VAL A   3      38.509  -1.574   8.585  0.00  0.00    -0.273 OA
ATOM      3  N   ASN A   4      36.976  -2.711   7.392  0.00  0.00    -0.297 N 
ATOM      4  H   ASN A   4      36.779  -3.541   6.797  0.00  0.00    +0.150 HD
ENDROOT
BRANCH   3   5
ATOM      5  CA  ASN A   4      35.919  -1.720   7.616  0.00  0.00    +0.158 C 
BRANCH   5   6
ATOM      6  C   ASN A   4      34.533  -2.319   7.402  0.00  0.00    +0.241 C 
ATOM      7  N   THR A   5      33.569  -1.905   8.220  0.00  0.00    -0.295 N 
ATOM      8  H   THR A   5      33.784  -1.186   8.940  0.00  0.00    +0.150 HD
ATOM      9  O   ASN A   4      34.343  -3.144   6.513  0.00  0.00    -0.273 OA
BRANCH   7  10
ATOM     10  CA  THR A   5      32.215  -2.442   8.125  0.00  0.00    +0.176 C 
BRANCH  10  11
ATOM     11  C   THR A   5      31.197  -1.353   7.790  0.00  0.00    +0.243 C 
ATOM     12  O   THR A   5      31.199  -0.279   8.395  0.00  0.00    -0.273 OA
ATOM     13  N   PHE A   6      30.336  -1.635   6.816  0.00  0.00    -0.298 N 
ATOM     14  H   PHE A   6      30.452  -2.518   6.279  0.00  0.00    +0.150 HD
BRANCH  13  15
ATOM     15  CA  PHE A   6      29.238  -0.745   6.481  0.00  0.00    +0.141 C 
BRANCH  15  16
ATOM     16  C   PHE A   6      27.925  -1.323   7.001  0.00  0.00    +0.227 C 
ATOM     17  O   PHE A   6      27.694  -2.523   6.903  0.00  0.00    -0.286 OA
ENDBRANCH  15  16
BRANCH  15  18
ATOM     18  CB  PHE A   6      29.164  -0.530   4.964  0.00  0.00    +0.054 C 
BRANCH  18  19
ATOM     19  CG  PHE A   6      30.314   0.276   4.417  0.00  0.00    -0.020 A 
ATOM     20  CD2 PHE A   6      30.324   1.661   4.537  0.00  0.00    -0.004 A 
ATOM     21  CE2 PHE A   6      31.377   2.411   4.039  0.00  0.00    -0.000 A 
ATOM     22  CZ  PHE A   6      32.438   1.775   3.422  0.00  0.00    -0.000 A 
ATOM     23  CE1 PHE A   6      32.443   0.402   3.299  0.00  0.00    -0.000 A 
ATOM     24  CD1 PHE A   6      31.387  -0.347   3.797  0.00  0.00    -0.004 A 
ENDBRANCH  18  19
ENDBRANCH  15  18
ENDBRANCH  13  15
ENDBRANCH  10  11
BRANCH  10  25
ATOM     25  CB  THR A   5      31.822  -3.177   9.427  0.00  0.00    +0.137 C 
ATOM     26  CG2 THR A   5      30.382  -3.682   9.359  0.00  0.00    +0.034 C 
BRANCH  25  27
ATOM     27  OG1 THR A   5      32.714  -4.283   9.633  0.00  0.00    -0.382 OA
ATOM     28  HG1 THR A   5      32.648  -4.906   8.866  0.00  0.00    +0.210 HD
ENDBRANCH  25  27
ENDBRANCH  10  25
ENDBRANCH   7  10
ENDBRANCH   5   6
BRANCH   5  29
ATOM     29  CB  ASN A   4      36.113  -0.494   6.721  0.00  0.00    +0.114 C 
BRANCH  29  30
ATOM     30  CG  ASN A   4      35.143   0.625   7.053  0.00  0.00    +0.222 C 
ATOM     31  OD1 ASN A   4      35.272   1.286   8.081  0.00  0.00    -0.275 OA
ATOM     32  ND2 ASN A   4      34.182   0.857   6.174  0.00  0.00    -0.329 N 
ATOM     33 HD21 ASN A   4      33.499   1.624   6.340  0.00  0.00    +0.145 HD
ATOM     34 HD22 ASN A   4      34.109   0.273   5.317  0.00  0.00    +0.145 HD
ENDBRANCH  29  30
ENDBRANCH   5  29
ENDBRANCH   3   5
BRANCH   1  35
ATOM     35  CA  VAL A   3      39.173  -3.708   7.701  0.00  0.00    +0.149 C 
BRANCH  35  37
ATOM     36  C   PRO A   2      41.273  -3.693   6.442  0.00  0.00    +0.241 C 
ATOM     37  N   VAL A   3      40.497  -3.161   7.383  0.00  0.00    -0.297 N 
ATOM     38  H   VAL A   3      40.839  -2.332   7.909  0.00  0.00    +0.150 HD
ATOM     39  O   PRO A   2      40.947  -4.675   5.772  0.00  0.00    -0.273 OA
BRANCH  36  45
ATOM     40  C   LYS A   1      42.050  -0.808   5.357  0.00  0.00    +0.241 C 
ATOM     41  N   PRO A   2      42.669  -1.595   6.242  0.00  0.00    -0.272 N 
ATOM     42  CD  PRO A   2      43.512  -1.065   7.325  0.00  0.00    +0.094 C 
ATOM     43  CG  PRO A   2      44.383  -2.229   7.658  0.00  0.00    +0.024 C 
ATOM     44  CB  PRO A   2      43.565  -3.425   7.407  0.00  0.00    +0.031 C 
ATOM     45  CA  PRO A   2      42.656  -3.062   6.228  0.00  0.00    +0.152 C 
ATOM     46  O   LYS A   1      41.288  -1.244   4.499  0.00  0.00    -0.273 OA
BRANCH  40  47
ATOM     47  CA  LYS A   1      42.377   0.681   5.418  0.00  0.00    +0.145 C 
BRANCH  47  48
ATOM     48  N   LYS A   1      42.911   1.035   4.109  0.00  0.00    -0.238 NA
ATOM     49  H   LYS A   1      42.426   1.740   3.518  0.00  0.00    +0.142 HD
ENDBRANCH  47  48
BRANCH  47  50
ATOM     50  CB  LYS A   1      41.142   1.512   5.758  0.00  0.00    +0.026 C 
BRANCH  50  51
ATOM     51  CG  LYS A   1      40.697   1.373   7.206  0.00  0.00    -0.000 C 
BRANCH  51  52
ATOM     52  CD  LYS A   1      39.374   2.094   7.490  0.00  0.00    -0.024 C 
BRANCH  52  53
ATOM     53  CE  LYS A   1      38.974   1.898   8.953  0.00  0.00    -0.086 C 
BRANCH  53  54
ATOM     54  NZ  LYS A   1      37.593   2.384   9.286  0.00  0.00    +0.380 N 
ATOM     55  HZ1 LYS A   1      37.401   2.215  10.294  0.00  0.00    -0.089 HD
ATOM     56  HZ2 LYS A   1      37.528   3.402   9.086  0.00  0.00    -0.089 HD
ATOM     57  HZ3 LYS A   1      36.897   1.870   8.708  0.00  0.00    -0.089 HD
ENDBRANCH  53  54
ENDBRANCH  52  53
ENDBRANCH  51  52
ENDBRANCH  50  51
ENDBRANCH  47  50
ENDBRANCH  40  47
ENDBRANCH  36  45
ENDBRANCH  35  37
BRANCH  35  58
ATOM     58  CB  VAL A   3      39.218  -4.587   8.976  0.00  0.00    +0.027 C 
ATOM     59  CG2 VAL A   3      37.818  -5.080   9.355  0.00  0.00    +0.002 C 
ATOM     60  CG1 VAL A   3      40.159  -5.763   8.779  0.00  0.00    +0.002 C 
ENDBRANCH  35  58
ENDBRANCH   1  35
TORSDOF 23
REMARK  Name = ../refined-set-2016/4g90/4g90_pocket.pdb
REMARK  140 active torsions:
REMARK  status: ('A' for Active; 'I' for Inactive)
REMARK    1  A    between atoms: _1  and  _3
REMARK    2  A    between atoms: _3  and  _4
REMARK    3  A    between atoms: _3  and  _6
REMARK    4  A    between atoms: _6  and  _7
REMARK    5  A    between atoms: _7  and  _8
REMARK    6  A    between atoms: _11  and  _13
REMARK    7  A    between atoms: _13  and  _14
REMARK    8  A    between atoms: _17  and  _19
REMARK    9  A    between atoms: _19  and  _20
REMARK   10  A    between atoms: _19  and  _22
REMARK   11  A    between atoms: _22  and  _23
REMARK   12  A    between atoms: _23  and  _24
REMARK   13  A    between atoms: _24  and  _25
REMARK   14  A    between atoms: _25  and  _26
REMARK   15  A    between atoms: _30  and  _32
REMARK   16  A    between atoms: _32  and  _33
REMARK   17  A    between atoms: _32  and  _35
REMARK   18  A    between atoms: _35  and  _36
REMARK   19  A    between atoms: _42  and  _44
REMARK   20  A    between atoms: _44  and  _45
REMARK   21  A    between atoms: _44  and  _47
REMARK   22  A    between atoms: _47  and  _48
REMARK   23  A    between atoms: _48  and  _49
REMARK   24  A    between atoms: _49  and  _50
REMARK   25  A    between atoms: _59  and  _61
REMARK   26  A    between atoms: _61  and  _62
REMARK   27  A    between atoms: _61  and  _64
REMARK   28  A    between atoms: _64  and  _65
REMARK   29  A    between atoms: _65  and  _66
REMARK   30  A    between atoms: _71  and  _73
REMARK   31  A    between atoms: _73  and  _74
REMARK   32  A    between atoms: _73  and  _76
REMARK   33  A    between atoms: _76  and  _77
REMARK   34  A    between atoms: _82  and  _84
REMARK   35  A    between atoms: _84  and  _85
REMARK   36  A    between atoms: _84  and  _87
REMARK   37  A    between atoms: _87  and  _88
REMARK   38  A    between atoms: _88  and  _89
REMARK   39  A    between atoms: _91  and  _93
REMARK   40  A    between atoms: _93  and  _94
REMARK   41  A    between atoms: _93  and  _96
REMARK   42  A    between atoms: _96  and  _97
REMARK   43  A    between atoms: _100  and  _102
REMARK   44  A    between atoms: _102  and  _103
REMARK   45  A    between atoms: _102  and  _105
REMARK   46  A    between atoms: _105  and  _106
REMARK   47  A    between atoms: _106  and  _107
REMARK   48  A    between atoms: _107  and  _108
REMARK   49  A    between atoms: _117  and  _119
REMARK   50  A    between atoms: _119  and  _120
REMARK   51  A    between atoms: _119  and  _122
REMARK   52  A    between atoms: _122  and  _123
REMARK   53  A    between atoms: _123  and  _124
REMARK   54  A    between atoms: _124  and  _125
REMARK   55  A    between atoms: _125  and  _126
REMARK   56  A    between atoms: _131  and  _132
REMARK   57  A    between atoms: _137  and  _139
REMARK   58  A    between atoms: _139  and  _140
REMARK   59  A    between atoms: _139  and  _142
REMARK   60  A    between atoms: _145  and  _147
REMARK   61  A    between atoms: _147  and  _148
REMARK   62  A    between atoms: _147  and  _150
REMARK   63  A    between atoms: _150  and  _151
REMARK   64  A    between atoms: _156  and  _158
REMARK   65  A    between atoms: _158  and  _159
REMARK   66  A    between atoms: _158  and  _161
REMARK   67  A    between atoms: _161  and  _162
REMARK   68  A    between atoms: _165  and  _167
REMARK   69  A    between atoms: _167  and  _168
REMARK   70  A    between atoms: _167  and  _170
REMARK   71  A    between atoms: _170  and  _171
REMARK   72  A    between atoms: _177  and  _179
REMARK   73  A    between atoms: _179  and  _180
REMARK   74  A    between atoms: _179  and  _182
REMARK   75  A    between atoms: _182  and  _183
REMARK   76  A    between atoms: _183  and  _184
REMARK   77  A    between atoms: _184  and  _185
REMARK   78  A    between atoms: _185  and  _186
REMARK   79  A    between atoms: _190  and  _192
REMARK   80  A    between atoms: _192  and  _193
REMARK   81  A    between atoms: _192  and  _195
REMARK   82  A    between atoms: _195  and  _196
REMARK   83  A    between atoms: _201  and  _203
REMARK   84  A    between atoms: _203  and  _204
REMARK   85  A    between atoms: _203  and  _206
REMARK   86  A    between atoms: _206  and  _207
REMARK   87  A    between atoms: _210  and  _212
REMARK   88  A    between atoms: _212  and  _213
REMARK   89  A    between atoms: _212  and  _215
REMARK   90  A    between atoms: _215  and  _216
REMARK   91  A    between atoms: _219  and  _221
REMARK   92  A    between atoms: _221  and  _222
REMARK   93  A    between atoms: _221  and  _224
REMARK   94  A    between atoms: _224  and  _225
REMARK   95  A    between atoms: _228  and  _230
REMARK   96  A    between atoms: _230  and  _231
REMARK   97  A    between atoms: _230  and  _233
REMARK   98  A    between atoms: _235  and  _237
REMARK   99  A    between atoms: _237  and  _238
REMARK  100  A    between atoms: _237  and  _240
REMARK  101  A    between atoms: _240  and  _241
REMARK  102  A    between atoms: _241  and  _242
REMARK  103  A    between atoms: _242  and  _243
REMARK  104  A    between atoms: _252  and  _254
REMARK  105  A    between atoms: _254  and  _255
REMARK  106  A    between atoms: _254  and  _257
REMARK  107  A    between atoms: _257  and  _258
REMARK  108  A    between atoms: _258  and  _259
REMARK  109  A    between atoms: _259  and  _260
REMARK  110  A    between atoms: _260  and  _261
REMARK  111  A    between atoms: _265  and  _267
REMARK  112  A    between atoms: _267  and  _268
REMARK  113  A    between atoms: _267  and  _270
REMARK  114  A    between atoms: _270  and  _271
REMARK  115  A    between atoms: _274  and  _276
REMARK  116  A    between atoms: _276  and  _277
REMARK  117  A    between atoms: _280  and  _282
REMARK  118  A    between atoms: _282  and  _283
REMARK  119  A    between atoms: _282  and  _285
REMARK  120  A    between atoms: _288  and  _290
REMARK  121  A    between atoms: _290  and  _291
REMARK  122  A    between atoms: _290  and  _293
REMARK  123  A    between atoms: _293  and  _294
REMARK  124  A    between atoms: _299  and  _301
REMARK  125  A    between atoms: _301  and  _302
REMARK  126  A    between atoms: _301  and  _304
REMARK  127  A    between atoms: _304  and  _305
REMARK  128  A    between atoms: _311  and  _313
REMARK  129  A    between atoms: _313  and  _314
REMARK  130  A    between atoms: _313  and  _316
REMARK  131  A    between atoms: _316  and  _317
REMARK  132  A    between atoms: _320  and  _322
REMARK  133  A    between atoms: _322  and  _323
REMARK  134  A    between atoms: _326  and  _328
REMARK  135  A    between atoms: _328  and  _329
REMARK  136  A    between atoms: _328  and  _331
REMARK  137  A    between atoms: _331  and  _332
REMARK  138  A    between atoms: _334  and  _336
REMARK  139  A    between atoms: _336  and  _337
REMARK  140  A    between atoms: _336  and  _339
REMARK                            x       y       z     vdW  Elec       q    Type
REMARK                         _______ _______ _______ _____ _____    ______ ____
ROOT
ATOM      1  C   LYS A   1      38.737  -3.439  23.479  0.00  0.00    +0.238 C 
ATOM      2  O   LYS A   1      39.608  -4.130  24.005  0.00  0.00    -0.274 OA
ATOM      3  N   ASN A   2      38.766  -2.110  23.518  0.00  0.00    -0.298 N 
ATOM      4  H   ASN A   2      37.999  -1.564  23.077  0.00  0.00    +0.150 HD
ENDROOT
BRANCH   1   5
ATOM      5  CA  LYS A   1      37.536  -4.100  22.788  0.00  0.00    +0.145 C 
BRANCH   5   6
ATOM      6  N   LYS A   1      36.293  -3.341  22.964  0.00  0.00    -0.238 NA
ATOM      7  H   LYS A   1      35.762  -3.038  22.123  0.00  0.00    +0.142 HD
ENDBRANCH   5   6
BRANCH   5   8
ATOM      8  CB  LYS A   1      37.815  -4.334  21.297  0.00  0.00    +0.026 C 
BRANCH   8   9
ATOM      9  CG  LYS A   1      37.000  -5.471  20.684  0.00  0.00    -0.000 C 
BRANCH   9  10
ATOM     10  CD  LYS A   1      37.127  -5.475  19.168  0.00  0.00    -0.024 C 
BRANCH  10  11
ATOM     11  CE  LYS A   1      36.414  -6.656  18.530  0.00  0.00    -0.086 C 
BRANCH  11  12
ATOM     12  NZ  LYS A   1      36.426  -6.543  17.035  0.00  0.00    +0.380 N 
ATOM     13  HZ1 LYS A   1      35.943  -5.667  16.751  0.00  0.00    -0.089 HD
ATOM     14  HZ2 LYS A   1      37.410  -6.523  16.698  0.00  0.00    -0.089 HD
ATOM     15  HZ3 LYS A   1      35.933  -7.361  16.623  0.00  0.00    -0.089 HD
ENDBRANCH  11  12
ENDBRANCH  10  11
ENDBRANCH   9  10
ENDBRANCH   8   9
ENDBRANCH   5   8
ENDBRANCH   1   5
BRANCH   3  16
ATOM     16  CA  ASN A   2      39.873  -1.407  24.179  0.00  0.00    +0.146 C 
BRANCH  16  17
ATOM     17  C   ASN A   2      39.713  -1.283  25.704  0.00  0.00    +0.227 C 
ATOM     18  O   ASN A   2      40.526  -0.633  26.367  0.00  0.00    -0.286 OA
ENDBRANCH  16  17
BRANCH  16  19
ATOM     19  CB  ASN A   2      40.114  -0.025  23.544  0.00  0.00    +0.112 C 
BRANCH  19  20
ATOM     20  CG  ASN A   2      38.960   0.940  23.763  0.00  0.00    +0.222 C 
ATOM     21  OD1 ASN A   2      38.010   0.649  24.486  0.00  0.00    -0.275 OA
ATOM     22  ND2 ASN A   2      39.046   2.109  23.137  0.00  0.00    -0.329 N 
ATOM     23 HD21 ASN A   2      38.292   2.816  23.250  0.00  0.00    +0.145 HD
ATOM     24 HD22 ASN A   2      39.867   2.317  22.534  0.00  0.00    +0.145 HD
ENDBRANCH  19  20
ENDBRANCH  16  19
ENDBRANCH   3  16
TORSDOF 11
REMARK  Name = ../refined-set-2016/4g90/4g90_pocket.pdb
REMARK  140 active torsions:
REMARK  status: ('A' for Active; 'I' for Inactive)
REMARK    1  A    between atoms: _1  and  _3
REMARK    2  A    between atoms: _3  and  _4
REMARK    3  A    between atoms: _3  and  _6
REMARK    4  A    between atoms: _6  and  _7
REMARK    5  A    between atoms: _7  and  _8
REMARK    6  A    between atoms: _11  and  _13
REMARK    7  A    between atoms: _13  and  _14
REMARK    8  A    between atoms: _17  and  _19
REMARK    9  A    between atoms: _19  and  _20
REMARK   10  A    between atoms: _19  and  _22
REMARK   11  A    between atoms: _22  and  _23
REMARK   12  A    between atoms: _23  and  _24
REMARK   13  A    between atoms: _24  and  _25
REMARK   14  A    between atoms: _25  and  _26
REMARK   15  A    between atoms: _30  and  _32
REMARK   16  A    between atoms: _32  and  _33
REMARK   17  A    between atoms: _32  and  _35
REMARK   18  A    between atoms: _35  and  _36
REMARK   19  A    between atoms: _42  and  _44
REMARK   20  A    between atoms: _44  and  _45
REMARK   21  A    between atoms: _44  and  _47
REMARK   22  A    between atoms: _47  and  _48
REMARK   23  A    between atoms: _48  and  _49
REMARK   24  A    between atoms: _49  and  _50
REMARK   25  A    between atoms: _59  and  _61
REMARK   26  A    between atoms: _61  and  _62
REMARK   27  A    between atoms: _61  and  _64
REMARK   28  A    between atoms: _64  and  _65
REMARK   29  A    between atoms: _65  and  _66
REMARK   30  A    between atoms: _71  and  _73
REMARK   31  A    between atoms: _73  and  _74
REMARK   32  A    between atoms: _73  and  _76
REMARK   33  A    between atoms: _76  and  _77
REMARK   34  A    between atoms: _82  and  _84
REMARK   35  A    between atoms: _84  and  _85
REMARK   36  A    between atoms: _84  and  _87
REMARK   37  A    between atoms: _87  and  _88
REMARK   38  A    between atoms: _88  and  _89
REMARK   39  A    between atoms: _91  and  _93
REMARK   40  A    between atoms: _93  and  _94
REMARK   41  A    between atoms: _93  and  _96
REMARK   42  A    between atoms: _96  and  _97
REMARK   43  A    between atoms: _100  and  _102
REMARK   44  A    between atoms: _102  and  _103
REMARK   45  A    between atoms: _102  and  _105
REMARK   46  A    between atoms: _105  and  _106
REMARK   47  A    between atoms: _106  and  _107
REMARK   48  A    between atoms: _107  and  _108
REMARK   49  A    between atoms: _117  and  _119
REMARK   50  A    between atoms: _119  and  _120
REMARK   51  A    between atoms: _119  and  _122
REMARK   52  A    between atoms: _122  and  _123
REMARK   53  A    between atoms: _123  and  _124
REMARK   54  A    between atoms: _124  and  _125
REMARK   55  A    between atoms: _125  and  _126
REMARK   56  A    between atoms: _131  and  _132
REMARK   57  A    between atoms: _137  and  _139
REMARK   58  A    between atoms: _139  and  _140
REMARK   59  A    between atoms: _139  and  _142
REMARK   60  A    between atoms: _145  and  _147
REMARK   61  A    between atoms: _147  and  _148
REMARK   62  A    between atoms: _147  and  _150
REMARK   63  A    between atoms: _150  and  _151
REMARK   64  A    between atoms: _156  and  _158
REMARK   65  A    between atoms: _158  and  _159
REMARK   66  A    between atoms: _158  and  _161
REMARK   67  A    between atoms: _161  and  _162
REMARK   68  A    between atoms: _165  and  _167
REMARK   69  A    between atoms: _167  and  _168
REMARK   70  A    between atoms: _167  and  _170
REMARK   71  A    between atoms: _170  and  _171
REMARK   72  A    between atoms: _177  and  _179
REMARK   73  A    between atoms: _179  and  _180
REMARK   74  A    between atoms: _179  and  _182
REMARK   75  A    between atoms: _182  and  _183
REMARK   76  A    between atoms: _183  and  _184
REMARK   77  A    between atoms: _184  and  _185
REMARK   78  A    between atoms: _185  and  _186
REMARK   79  A    between atoms: _190  and  _192
REMARK   80  A    between atoms: _192  and  _193
REMARK   81  A    between atoms: _192  and  _195
REMARK   82  A    between atoms: _195  and  _196
REMARK   83  A    between atoms: _201  and  _203
REMARK   84  A    between atoms: _203  and  _204
REMARK   85  A    between atoms: _203  and  _206
REMARK   86  A    between atoms: _206  and  _207
REMARK   87  A    between atoms: _210  and  _212
REMARK   88  A    between atoms: _212  and  _213
REMARK   89  A    between atoms: _212  and  _215
REMARK   90  A    between atoms: _215  and  _216
REMARK   91  A    between atoms: _219  and  _221
REMARK   92  A    between atoms: _221  and  _222
REMARK   93  A    between atoms: _221  and  _224
REMARK   94  A    between atoms: _224  and  _225
REMARK   95  A    between atoms: _228  and  _230
REMARK   96  A    between atoms: _230  and  _231
REMARK   97  A    between atoms: _230  and  _233
REMARK   98  A    between atoms: _235  and  _237
REMARK   99  A    between atoms: _237  and  _238
REMARK  100  A    between atoms: _237  and  _240
REMARK  101  A    between atoms: _240  and  _241
REMARK  102  A    between atoms: _241  and  _242
REMARK  103  A    between atoms: _242  and  _243
REMARK  104  A    between atoms: _252  and  _254
REMARK  105  A    between atoms: _254  and  _255
REMARK  106  A    between atoms: _254  and  _257
REMARK  107  A    between atoms: _257  and  _258
REMARK  108  A    between atoms: _258  and  _259
REMARK  109  A    between atoms: _259  and  _260
REMARK  110  A    between atoms: _260  and  _261
REMARK  111  A    between atoms: _265  and  _267
REMARK  112  A    between atoms: _267  and  _268
REMARK  113  A    between atoms: _267  and  _270
REMARK  114  A    between atoms: _270  and  _271
REMARK  115  A    between atoms: _274  and  _276
REMARK  116  A    between atoms: _276  and  _277
REMARK  117  A    between atoms: _280  and  _282
REMARK  118  A    between atoms: _282  and  _283
REMARK  119  A    between atoms: _282  and  _285
REMARK  120  A    between atoms: _288  and  _290
REMARK  121  A    between atoms: _290  and  _291
REMARK  122  A    between atoms: _290  and  _293
REMARK  123  A    between atoms: _293  and  _294
REMARK  124  A    between atoms: _299  and  _301
REMARK  125  A    between atoms: _301  and  _302
REMARK  126  A    between atoms: _301  and  _304
REMARK  127  A    between atoms: _304  and  _305
REMARK  128  A    between atoms: _311  and  _313
REMARK  129  A    between atoms: _313  and  _314
REMARK  130  A    between atoms: _313  and  _316
REMARK  131  A    between atoms: _316  and  _317
REMARK  132  A    between atoms: _320  and  _322
REMARK  133  A    between atoms: _322  and  _323
REMARK  134  A    between atoms: _326  and  _328
REMARK  135  A    between atoms: _328  and  _329
REMARK  136  A    between atoms: _328  and  _331
REMARK  137  A    between atoms: _331  and  _332
REMARK  138  A    between atoms: _334  and  _336
REMARK  139  A    between atoms: _336  and  _337
REMARK  140  A    between atoms: _336  and  _339
REMARK                            x       y       z     vdW  Elec       q    Type
REMARK                         _______ _______ _______ _____ _____    ______ ____
ROOT
ATOM      1  C   ASP A   3      33.333  -6.285   4.762  0.00  0.00    +0.241 C 
ATOM      2  N   CYS A   4      34.325  -5.397   4.863  0.00  0.00    -0.296 N 
ATOM      3  H   CYS A   4      34.372  -4.787   5.704  0.00  0.00    +0.150 HD
ATOM      4  O   ASP A   3      33.119  -6.968   3.749  0.00  0.00    -0.273 OA
ENDROOT
BRANCH   2   5
ATOM      5  CA  CYS A   4      35.344  -5.256   3.830  0.00  0.00    +0.160 C 
BRANCH   5   6
ATOM      6  C   CYS A   4      36.713  -5.585   4.414  0.00  0.00    +0.242 C 
ATOM      7  O   CYS A   4      37.115  -5.032   5.437  0.00  0.00    -0.273 OA
ATOM      8  N   ARG A   5      37.421  -6.497   3.756  0.00  0.00    -0.298 N 
ATOM      9  H   ARG A   5      37.052  -6.858   2.853  0.00  0.00    +0.150 HD
BRANCH   8  10
ATOM     10  CA  ARG A   5      38.686  -7.010   4.245  0.00  0.00    +0.137 C 
BRANCH  10  11
ATOM     11  C   ARG A   5      39.687  -6.990   3.105  0.00  0.00    +0.227 C 
ATOM     12  O   ARG A   5      39.474  -7.627   2.071  0.00  0.00    -0.286 OA
ENDBRANCH  10  11
BRANCH  10  13
ATOM     13  CB  ARG A   5      38.500  -8.447   4.743  0.00  0.00    +0.031 C 
BRANCH  13  14
ATOM     14  CG  ARG A   5      39.785  -9.242   4.929  0.00  0.00    +0.045 C 
BRANCH  14  15
ATOM     15  CD  ARG A   5      40.391  -9.002   6.299  0.00  0.00    +0.174 C 
BRANCH  15  16
ATOM     16  NE  ARG A   5      39.431  -9.286   7.365  0.00  0.00    -0.265 N 
ATOM     17  CZ  ARG A   5      39.733  -9.306   8.660  0.00  0.00    +0.342 C 
ATOM     18  NH2 ARG A   5      38.793  -9.571   9.558  0.00  0.00    -0.292 N 
ATOM     19 HH21 ARG A   5      39.031  -9.586  10.570  0.00  0.00    +0.255 HD
ATOM     20 HH22 ARG A   5      37.819  -9.763   9.250  0.00  0.00    +0.255 HD
ATOM     21  NH1 ARG A   5      40.975  -9.061   9.058  0.00  0.00    -0.292 N 
ATOM     22 HH11 ARG A   5      41.209  -9.077  10.071  0.00  0.00    +0.255 HD
ATOM     23 HH12 ARG A   5      41.714  -8.853   8.357  0.00  0.00    +0.255 HD
ATOM     24  HE  ARG A   5      38.447  -9.485   7.092  0.00  0.00    +0.259 HD
ENDBRANCH  15  16
ENDBRANCH  14  15
ENDBRANCH  13  14
ENDBRANCH  10  13
ENDBRANCH   8  10
ENDBRANCH   5   6
BRANCH   5  25
ATOM     25  CB  CYS A   4      35.334  -3.838   3.250  0.00  0.00    +0.098 C 
ATOM     26  SG  CYS A   4      33.716  -3.273   2.646  0.00  0.00    -0.080 S 
ENDBRANCH   5  25
ENDBRANCH   2   5
BRANCH   1  27
ATOM     27  CA  ASP A   3      32.446  -6.429   5.982  0.00  0.00    +0.160 C 
BRANCH  27  30
ATOM     28  C   THR A   2      30.303  -5.436   5.426  0.00  0.00    +0.243 C 
ATOM     29  O   THR A   2      30.679  -4.316   5.770  0.00  0.00    -0.273 OA
ATOM     30  N   ASP A   3      31.053  -6.526   5.562  0.00  0.00    -0.296 N 
ATOM     31  H   ASP A   3      30.640  -7.460   5.366  0.00  0.00    +0.150 HD
BRANCH  28  32
ATOM     32  CA  THR A   2      28.917  -5.627   4.845  0.00  0.00    +0.176 C 
BRANCH  32  34
ATOM     33  C   ILE A   1      26.922  -5.866   6.179  0.00  0.00    +0.238 C 
ATOM     34  N   THR A   2      27.943  -5.115   5.791  0.00  0.00    -0.295 N 
ATOM     35  H   THR A   2      28.047  -4.151   6.168  0.00  0.00    +0.150 HD
ATOM     36  O   ILE A   1      26.679  -6.973   5.690  0.00  0.00    -0.274 OA
BRANCH  33  37
ATOM     37  CA  ILE A   1      26.052  -5.275   7.281  0.00  0.00    +0.145 C 
BRANCH  37  38
ATOM     38  CB  ILE A   1      26.827  -5.389   8.622  0.00  0.00    +0.025 C 
ATOM     39  CG2 ILE A   1      26.043  -4.712   9.754  0.00  0.00    +0.002 C 
BRANCH  38  40
ATOM     40  CG1 ILE A   1      27.106  -6.862   8.944  0.00  0.00    +0.002 C 
ATOM     41  CD1 ILE A   1      28.216  -7.108   9.946  0.00  0.00    +0.000 C 
ENDBRANCH  38  40
ENDBRANCH  37  38
BRANCH  37  42
ATOM     42  N   ILE A   1      24.741  -5.914   7.342  0.00  0.00    -0.238 NA
ATOM     43  H   ILE A   1      24.668  -6.946   7.237  0.00  0.00    +0.142 HD
ENDBRANCH  37  42
ENDBRANCH  33  37
ENDBRANCH  32  34
BRANCH  32  44
ATOM     44  CB  THR A   2      28.827  -4.897   3.506  0.00  0.00    +0.137 C 
ATOM     45  CG2 THR A   2      29.855  -5.470   2.524  0.00  0.00    +0.034 C 
BRANCH  44  46
ATOM     46  OG1 THR A   2      27.503  -5.041   2.971  0.00  0.00    -0.382 OA
ATOM     47  HG1 THR A   2      26.848  -4.653   3.604  0.00  0.00    +0.210 HD
ENDBRANCH  44  46
ENDBRANCH  32  44
ENDBRANCH  28  32
ENDBRANCH  27  30
BRANCH  27  48
ATOM     48  CB  ASP A   3      32.882  -7.661   6.784  0.00  0.00    +0.143 C 
BRANCH  48  49
ATOM     49  CG  ASP A   3      32.300  -7.680   8.187  0.00  0.00    +0.367 C 
ATOM     50  OD2 ASP A   3      32.427  -6.664   8.904  0.00  0.00    -0.246 OA
ATOM     51  OD1 ASP A   3      31.707  -8.710   8.573  0.00  0.00    -0.246 OA
ENDBRANCH  48  49
ENDBRANCH  27  48
ENDBRANCH   1  27
TORSDOF 21
REMARK  Name = ../refined-set-2016/4g90/4g90_pocket.pdb
REMARK  140 active torsions:
REMARK  status: ('A' for Active; 'I' for Inactive)
REMARK    1  A    between atoms: _1  and  _3
REMARK    2  A    between atoms: _3  and  _4
REMARK    3  A    between atoms: _3  and  _6
REMARK    4  A    between atoms: _6  and  _7
REMARK    5  A    between atoms: _7  and  _8
REMARK    6  A    between atoms: _11  and  _13
REMARK    7  A    between atoms: _13  and  _14
REMARK    8  A    between atoms: _17  and  _19
REMARK    9  A    between atoms: _19  and  _20
REMARK   10  A    between atoms: _19  and  _22
REMARK   11  A    between atoms: _22  and  _23
REMARK   12  A    between atoms: _23  and  _24
REMARK   13  A    between atoms: _24  and  _25
REMARK   14  A    between atoms: _25  and  _26
REMARK   15  A    between atoms: _30  and  _32
REMARK   16  A    between atoms: _32  and  _33
REMARK   17  A    between atoms: _32  and  _35
REMARK   18  A    between atoms: _35  and  _36
REMARK   19  A    between atoms: _42  and  _44
REMARK   20  A    between atoms: _44  and  _45
REMARK   21  A    between atoms: _44  and  _47
REMARK   22  A    between atoms: _47  and  _48
REMARK   23  A    between atoms: _48  and  _49
REMARK   24  A    between atoms: _49  and  _50
REMARK   25  A    between atoms: _59  and  _61
REMARK   26  A    between atoms: _61  and  _62
REMARK   27  A    between atoms: _61  and  _64
REMARK   28  A    between atoms: _64  and  _65
REMARK   29  A    between atoms: _65  and  _66
REMARK   30  A    between atoms: _71  and  _73
REMARK   31  A    between atoms: _73  and  _74
REMARK   32  A    between atoms: _73  and  _76
REMARK   33  A    between atoms: _76  and  _77
REMARK   34  A    between atoms: _82  and  _84
REMARK   35  A    between atoms: _84  and  _85
REMARK   36  A    between atoms: _84  and  _87
REMARK   37  A    between atoms: _87  and  _88
REMARK   38  A    between atoms: _88  and  _89
REMARK   39  A    between atoms: _91  and  _93
REMARK   40  A    between atoms: _93  and  _94
REMARK   41  A    between atoms: _93  and  _96
REMARK   42  A    between atoms: _96  and  _97
REMARK   43  A    between atoms: _100  and  _102
REMARK   44  A    between atoms: _102  and  _103
REMARK   45  A    between atoms: _102  and  _105
REMARK   46  A    between atoms: _105  and  _106
REMARK   47  A    between atoms: _106  and  _107
REMARK   48  A    between atoms: _107  and  _108
REMARK   49  A    between atoms: _117  and  _119
REMARK   50  A    between atoms: _119  and  _120
REMARK   51  A    between atoms: _119  and  _122
REMARK   52  A    between atoms: _122  and  _123
REMARK   53  A    between atoms: _123  and  _124
REMARK   54  A    between atoms: _124  and  _125
REMARK   55  A    between atoms: _125  and  _126
REMARK   56  A    between atoms: _131  and  _132
REMARK   57  A    between atoms: _137  and  _139
REMARK   58  A    between atoms: _139  and  _140
REMARK   59  A    between atoms: _139  and  _142
REMARK   60  A    between atoms: _145  and  _147
REMARK   61  A    between atoms: _147  and  _148
REMARK   62  A    between atoms: _147  and  _150
REMARK   63  A    between atoms: _150  and  _151
REMARK   64  A    between atoms: _156  and  _158
REMARK   65  A    between atoms: _158  and  _159
REMARK   66  A    between atoms: _158  and  _161
REMARK   67  A    between atoms: _161  and  _162
REMARK   68  A    between atoms: _165  and  _167
REMARK   69  A    between atoms: _167  and  _168
REMARK   70  A    between atoms: _167  and  _170
REMARK   71  A    between atoms: _170  and  _171
REMARK   72  A    between atoms: _177  and  _179
REMARK   73  A    between atoms: _179  and  _180
REMARK   74  A    between atoms: _179  and  _182
REMARK   75  A    between atoms: _182  and  _183
REMARK   76  A    between atoms: _183  and  _184
REMARK   77  A    between atoms: _184  and  _185
REMARK   78  A    between atoms: _185  and  _186
REMARK   79  A    between atoms: _190  and  _192
REMARK   80  A    between atoms: _192  and  _193
REMARK   81  A    between atoms: _192  and  _195
REMARK   82  A    between atoms: _195  and  _196
REMARK   83  A    between atoms: _201  and  _203
REMARK   84  A    between atoms: _203  and  _204
REMARK   85  A    between atoms: _203  and  _206
REMARK   86  A    between atoms: _206  and  _207
REMARK   87  A    between atoms: _210  and  _212
REMARK   88  A    between atoms: _212  and  _213
REMARK   89  A    between atoms: _212  and  _215
REMARK   90  A    between atoms: _215  and  _216
REMARK   91  A    between atoms: _219  and  _221
REMARK   92  A    between atoms: _221  and  _222
REMARK   93  A    between atoms: _221  and  _224
REMARK   94  A    between atoms: _224  and  _225
REMARK   95  A    between atoms: _228  and  _230
REMARK   96  A    between atoms: _230  and  _231
REMARK   97  A    between atoms: _230  and  _233
REMARK   98  A    between atoms: _235  and  _237
REMARK   99  A    between atoms: _237  and  _238
REMARK  100  A    between atoms: _237  and  _240
REMARK  101  A    between atoms: _240  and  _241
REMARK  102  A    between atoms: _241  and  _242
REMARK  103  A    between atoms: _242  and  _243
REMARK  104  A    between atoms: _252  and  _254
REMARK  105  A    between atoms: _254  and  _255
REMARK  106  A    between atoms: _254  and  _257
REMARK  107  A    between atoms: _257  and  _258
REMARK  108  A    between atoms: _258  and  _259
REMARK  109  A    between atoms: _259  and  _260
REMARK  110  A    between atoms: _260  and  _261
REMARK  111  A    between atoms: _265  and  _267
REMARK  112  A    between atoms: _267  and  _268
REMARK  113  A    between atoms: _267  and  _270
REMARK  114  A    between atoms: _270  and  _271
REMARK  115  A    between atoms: _274  and  _276
REMARK  116  A    between atoms: _276  and  _277
REMARK  117  A    between atoms: _280  and  _282
REMARK  118  A    between atoms: _282  and  _283
REMARK  119  A    between atoms: _282  and  _285
REMARK  120  A    between atoms: _288  and  _290
REMARK  121  A    between atoms: _290  and  _291
REMARK  122  A    between atoms: _290  and  _293
REMARK  123  A    between atoms: _293  and  _294
REMARK  124  A    between atoms: _299  and  _301
REMARK  125  A    between atoms: _301  and  _302
REMARK  126  A    between atoms: _301  and  _304
REMARK  127  A    between atoms: _304  and  _305
REMARK  128  A    between atoms: _311  and  _313
REMARK  129  A    between atoms: _313  and  _314
REMARK  130  A    between atoms: _313  and  _316
REMARK  131  A    between atoms: _316  and  _317
REMARK  132  A    between atoms: _320  and  _322
REMARK  133  A    between atoms: _322  and  _323
REMARK  134  A    between atoms: _326  and  _328
REMARK  135  A    between atoms: _328  and  _329
REMARK  136  A    between atoms: _328  and  _331
REMARK  137  A    between atoms: _331  and  _332
REMARK  138  A    between atoms: _334  and  _336
REMARK  139  A    between atoms: _336  and  _337
REMARK  140  A    between atoms: _336  and  _339
REMARK                            x       y       z     vdW  Elec       q    Type
REMARK                         _______ _______ _______ _____ _____    ______ ____
ROOT
ATOM      1  CG  LYS A   1      26.814 -11.027  11.859  0.00  0.00    -0.000 C 
ENDROOT
BRANCH   1   2
ATOM      2  CB  LYS A   1      26.287  -9.797  12.601  0.00  0.00    +0.025 C 
BRANCH   2   3
ATOM      3  CA  LYS A   1      24.763  -9.743  12.786  0.00  0.00    +0.133 C 
BRANCH   3   4
ATOM      4  N   LYS A   1      24.115  -9.519  11.512  0.00  0.00    -0.239 NA
ATOM      5  H   LYS A   1      23.969  -8.544  11.181  0.00  0.00    +0.142 HD
ENDBRANCH   3   4
BRANCH   3   6
ATOM      6  C   LYS A   1      24.408  -8.595  13.714  0.00  0.00    +0.224 C 
ATOM      7  O   LYS A   1      23.967  -7.530  13.268  0.00  0.00    -0.287 OA
ENDBRANCH   3   6
ENDBRANCH   2   3
ENDBRANCH   1   2
BRANCH   1   8
ATOM      8  CD  LYS A   1      28.331 -11.145  12.001  0.00  0.00    -0.024 C 
BRANCH   8   9
ATOM      9  CE  LYS A   1      28.792 -12.557  11.661  0.00  0.00    -0.086 C 
BRANCH   9  10
ATOM     10  NZ  LYS A   1      30.276 -12.663  11.595  0.00  0.00    +0.380 N 
ATOM     11  HZ1 LYS A   1      30.682 -12.403  12.516  0.00  0.00    -0.089 HD
ATOM     12  HZ2 LYS A   1      30.542 -13.641  11.361  0.00  0.00    -0.089 HD
ATOM     13  HZ3 LYS A   1      30.636 -12.019  10.862  0.00  0.00    -0.089 HD
ENDBRANCH   9  10
ENDBRANCH   8   9
ENDBRANCH   1   8
TORSDOF 7
REMARK  Name = ../refined-set-2016/4g90/4g90_pocket.pdb
REMARK  140 active torsions:
REMARK  status: ('A' for Active; 'I' for Inactive)
REMARK    1  A    between atoms: _1  and  _3
REMARK    2  A    between atoms: _3  and  _4
REMARK    3  A    between atoms: _3  and  _6
REMARK    4  A    between atoms: _6  and  _7
REMARK    5  A    between atoms: _7  and  _8
REMARK    6  A    between atoms: _11  and  _13
REMARK    7  A    between atoms: _13  and  _14
REMARK    8  A    between atoms: _17  and  _19
REMARK    9  A    between atoms: _19  and  _20
REMARK   10  A    between atoms: _19  and  _22
REMARK   11  A    between atoms: _22  and  _23
REMARK   12  A    between atoms: _23  and  _24
REMARK   13  A    between atoms: _24  and  _25
REMARK   14  A    between atoms: _25  and  _26
REMARK   15  A    between atoms: _30  and  _32
REMARK   16  A    between atoms: _32  and  _33
REMARK   17  A    between atoms: _32  and  _35
REMARK   18  A    between atoms: _35  and  _36
REMARK   19  A    between atoms: _42  and  _44
REMARK   20  A    between atoms: _44  and  _45
REMARK   21  A    between atoms: _44  and  _47
REMARK   22  A    between atoms: _47  and  _48
REMARK   23  A    between atoms: _48  and  _49
REMARK   24  A    between atoms: _49  and  _50
REMARK   25  A    between atoms: _59  and  _61
REMARK   26  A    between atoms: _61  and  _62
REMARK   27  A    between atoms: _61  and  _64
REMARK   28  A    between atoms: _64  and  _65
REMARK   29  A    between atoms: _65  and  _66
REMARK   30  A    between atoms: _71  and  _73
REMARK   31  A    between atoms: _73  and  _74
REMARK   32  A    between atoms: _73  and  _76
REMARK   33  A    between atoms: _76  and  _77
REMARK   34  A    between atoms: _82  and  _84
REMARK   35  A    between atoms: _84  and  _85
REMARK   36  A    between atoms: _84  and  _87
REMARK   37  A    between atoms: _87  and  _88
REMARK   38  A    between atoms: _88  and  _89
REMARK   39  A    between atoms: _91  and  _93
REMARK   40  A    between atoms: _93  and  _94
REMARK   41  A    between atoms: _93  and  _96
REMARK   42  A    between atoms: _96  and  _97
REMARK   43  A    between atoms: _100  and  _102
REMARK   44  A    between atoms: _102  and  _103
REMARK   45  A    between atoms: _102  and  _105
REMARK   46  A    between atoms: _105  and  _106
REMARK   47  A    between atoms: _106  and  _107
REMARK   48  A    between atoms: _107  and  _108
REMARK   49  A    between atoms: _117  and  _119
REMARK   50  A    between atoms: _119  and  _120
REMARK   51  A    between atoms: _119  and  _122
REMARK   52  A    between atoms: _122  and  _123
REMARK   53  A    between atoms: _123  and  _124
REMARK   54  A    between atoms: _124  and  _125
REMARK   55  A    between atoms: _125  and  _126
REMARK   56  A    between atoms: _131  and  _132
REMARK   57  A    between atoms: _137  and  _139
REMARK   58  A    between atoms: _139  and  _140
REMARK   59  A    between atoms: _139  and  _142
REMARK   60  A    between atoms: _145  and  _147
REMARK   61  A    between atoms: _147  and  _148
REMARK   62  A    between atoms: _147  and  _150
REMARK   63  A    between atoms: _150  and  _151
REMARK   64  A    between atoms: _156  and  _158
REMARK   65  A    between atoms: _158  and  _159
REMARK   66  A    between atoms: _158  and  _161
REMARK   67  A    between atoms: _161  and  _162
REMARK   68  A    between atoms: _165  and  _167
REMARK   69  A    between atoms: _167  and  _168
REMARK   70  A    between atoms: _167  and  _170
REMARK   71  A    between atoms: _170  and  _171
REMARK   72  A    between atoms: _177  and  _179
REMARK   73  A    between atoms: _179  and  _180
REMARK   74  A    between atoms: _179  and  _182
REMARK   75  A    between atoms: _182  and  _183
REMARK   76  A    between atoms: _183  and  _184
REMARK   77  A    between atoms: _184  and  _185
REMARK   78  A    between atoms: _185  and  _186
REMARK   79  A    between atoms: _190  and  _192
REMARK   80  A    between atoms: _192  and  _193
REMARK   81  A    between atoms: _192  and  _195
REMARK   82  A    between atoms: _195  and  _196
REMARK   83  A    between atoms: _201  and  _203
REMARK   84  A    between atoms: _203  and  _204
REMARK   85  A    between atoms: _203  and  _206
REMARK   86  A    between atoms: _206  and  _207
REMARK   87  A    between atoms: _210  and  _212
REMARK   88  A    between atoms: _212  and  _213
REMARK   89  A    between atoms: _212  and  _215
REMARK   90  A    between atoms: _215  and  _216
REMARK   91  A    between atoms: _219  and  _221
REMARK   92  A    between atoms: _221  and  _222
REMARK   93  A    between atoms: _221  and  _224
REMARK   94  A    between atoms: _224  and  _225
REMARK   95  A    between atoms: _228  and  _230
REMARK   96  A    between atoms: _230  and  _231
REMARK   97  A    between atoms: _230  and  _233
REMARK   98  A    between atoms: _235  and  _237
REMARK   99  A    between atoms: _237  and  _238
REMARK  100  A    between atoms: _237  and  _240
REMARK  101  A    between atoms: _240  and  _241
REMARK  102  A    between atoms: _241  and  _242
REMARK  103  A    between atoms: _242  and  _243
REMARK  104  A    between atoms: _252  and  _254
REMARK  105  A    between atoms: _254  and  _255
REMARK  106  A    between atoms: _254  and  _257
REMARK  107  A    between atoms: _257  and  _258
REMARK  108  A    between atoms: _258  and  _259
REMARK  109  A    between atoms: _259  and  _260
REMARK  110  A    between atoms: _260  and  _261
REMARK  111  A    between atoms: _265  and  _267
REMARK  112  A    between atoms: _267  and  _268
REMARK  113  A    between atoms: _267  and  _270
REMARK  114  A    between atoms: _270  and  _271
REMARK  115  A    between atoms: _274  and  _276
REMARK  116  A    between atoms: _276  and  _277
REMARK  117  A    between atoms: _280  and  _282
REMARK  118  A    between atoms: _282  and  _283
REMARK  119  A    between atoms: _282  and  _285
REMARK  120  A    between atoms: _288  and  _290
REMARK  121  A    between atoms: _290  and  _291
REMARK  122  A    between atoms: _290  and  _293
REMARK  123  A    between atoms: _293  and  _294
REMARK  124  A    between atoms: _299  and  _301
REMARK  125  A    between atoms: _301  and  _302
REMARK  126  A    between atoms: _301  and  _304
REMARK  127  A    between atoms: _304  and  _305
REMARK  128  A    between atoms: _311  and  _313
REMARK  129  A    between atoms: _313  and  _314
REMARK  130  A    between atoms: _313  and  _316
REMARK  131  A    between atoms: _316  and  _317
REMARK  132  A    between atoms: _320  and  _322
REMARK  133  A    between atoms: _322  and  _323
REMARK  134  A    between atoms: _326  and  _328
REMARK  135  A    between atoms: _328  and  _329
REMARK  136  A    between atoms: _328  and  _331
REMARK  137  A    between atoms: _331  and  _332
REMARK  138  A    between atoms: _334  and  _336
REMARK  139  A    between atoms: _336  and  _337
REMARK  140  A    between atoms: _336  and  _339
REMARK                            x       y       z     vdW  Elec       q    Type
REMARK                         _______ _______ _______ _____ _____    ______ ____
ROOT
ATOM      1  CA  ILE A   1      28.654  -3.143  18.598  0.00  0.00    +0.133 C 
ENDROOT
BRANCH   1   2
ATOM      2  N   ILE A   1      28.228  -3.796  17.373  0.00  0.00    -0.239 NA
ATOM      3  H   ILE A   1      28.934  -4.017  16.642  0.00  0.00    +0.142 HD
ENDBRANCH   1   2
BRANCH   1   4
ATOM      4  CB  ILE A   1      29.565  -4.049  19.441  0.00  0.00    +0.023 C 
ATOM      5  CG2 ILE A   1      30.054  -3.302  20.688  0.00  0.00    +0.002 C 
BRANCH   4   6
ATOM      6  CG1 ILE A   1      28.829  -5.342  19.818  0.00  0.00    +0.002 C 
ATOM      7  CD1 ILE A   1      29.700  -6.360  20.492  0.00  0.00    +0.000 C 
ENDBRANCH   4   6
ENDBRANCH   1   4
BRANCH   1   8
ATOM      8  C   ILE A   1      29.381  -1.840  18.243  0.00  0.00    +0.224 C 
ATOM      9  O   ILE A   1      30.359  -1.845  17.486  0.00  0.00    -0.287 OA
ENDBRANCH   1   8
TORSDOF 4
REMARK  Name = ../refined-set-2016/4g90/4g90_pocket.pdb
REMARK  140 active torsions:
REMARK  status: ('A' for Active; 'I' for Inactive)
REMARK    1  A    between atoms: _1  and  _3
REMARK    2  A    between atoms: _3  and  _4
REMARK    3  A    between atoms: _3  and  _6
REMARK    4  A    between atoms: _6  and  _7
REMARK    5  A    between atoms: _7  and  _8
REMARK    6  A    between atoms: _11  and  _13
REMARK    7  A    between atoms: _13  and  _14
REMARK    8  A    between atoms: _17  and  _19
REMARK    9  A    between atoms: _19  and  _20
REMARK   10  A    between atoms: _19  and  _22
REMARK   11  A    between atoms: _22  and  _23
REMARK   12  A    between atoms: _23  and  _24
REMARK   13  A    between atoms: _24  and  _25
REMARK   14  A    between atoms: _25  and  _26
REMARK   15  A    between atoms: _30  and  _32
REMARK   16  A    between atoms: _32  and  _33
REMARK   17  A    between atoms: _32  and  _35
REMARK   18  A    between atoms: _35  and  _36
REMARK   19  A    between atoms: _42  and  _44
REMARK   20  A    between atoms: _44  and  _45
REMARK   21  A    between atoms: _44  and  _47
REMARK   22  A    between atoms: _47  and  _48
REMARK   23  A    between atoms: _48  and  _49
REMARK   24  A    between atoms: _49  and  _50
REMARK   25  A    between atoms: _59  and  _61
REMARK   26  A    between atoms: _61  and  _62
REMARK   27  A    between atoms: _61  and  _64
REMARK   28  A    between atoms: _64  and  _65
REMARK   29  A    between atoms: _65  and  _66
REMARK   30  A    between atoms: _71  and  _73
REMARK   31  A    between atoms: _73  and  _74
REMARK   32  A    between atoms: _73  and  _76
REMARK   33  A    between atoms: _76  and  _77
REMARK   34  A    between atoms: _82  and  _84
REMARK   35  A    between atoms: _84  and  _85
REMARK   36  A    between atoms: _84  and  _87
REMARK   37  A    between atoms: _87  and  _88
REMARK   38  A    between atoms: _88  and  _89
REMARK   39  A    between atoms: _91  and  _93
REMARK   40  A    between atoms: _93  and  _94
REMARK   41  A    between atoms: _93  and  _96
REMARK   42  A    between atoms: _96  and  _97
REMARK   43  A    between atoms: _100  and  _102
REMARK   44  A    between atoms: _102  and  _103
REMARK   45  A    between atoms: _102  and  _105
REMARK   46  A    between atoms: _105  and  _106
REMARK   47  A    between atoms: _106  and  _107
REMARK   48  A    between atoms: _107  and  _108
REMARK   49  A    between atoms: _117  and  _119
REMARK   50  A    between atoms: _119  and  _120
REMARK   51  A    between atoms: _119  and  _122
REMARK   52  A    between atoms: _122  and  _123
REMARK   53  A    between atoms: _123  and  _124
REMARK   54  A    between atoms: _124  and  _125
REMARK   55  A    between atoms: _125  and  _126
REMARK   56  A    between atoms: _131  and  _132
REMARK   57  A    between atoms: _137  and  _139
REMARK   58  A    between atoms: _139  and  _140
REMARK   59  A    between atoms: _139  and  _142
REMARK   60  A    between atoms: _145  and  _147
REMARK   61  A    between atoms: _147  and  _148
REMARK   62  A    between atoms: _147  and  _150
REMARK   63  A    between atoms: _150  and  _151
REMARK   64  A    between atoms: _156  and  _158
REMARK   65  A    between atoms: _158  and  _159
REMARK   66  A    between atoms: _158  and  _161
REMARK   67  A    between atoms: _161  and  _162
REMARK   68  A    between atoms: _165  and  _167
REMARK   69  A    between atoms: _167  and  _168
REMARK   70  A    between atoms: _167  and  _170
REMARK   71  A    between atoms: _170  and  _171
REMARK   72  A    between atoms: _177  and  _179
REMARK   73  A    between atoms: _179  and  _180
REMARK   74  A    between atoms: _179  and  _182
REMARK   75  A    between atoms: _182  and  _183
REMARK   76  A    between atoms: _183  and  _184
REMARK   77  A    between atoms: _184  and  _185
REMARK   78  A    between atoms: _185  and  _186
REMARK   79  A    between atoms: _190  and  _192
REMARK   80  A    between atoms: _192  and  _193
REMARK   81  A    between atoms: _192  and  _195
REMARK   82  A    between atoms: _195  and  _196
REMARK   83  A    between atoms: _201  and  _203
REMARK   84  A    between atoms: _203  and  _204
REMARK   85  A    between atoms: _203  and  _206
REMARK   86  A    between atoms: _206  and  _207
REMARK   87  A    between atoms: _210  and  _212
REMARK   88  A    between atoms: _212  and  _213
REMARK   89  A    between atoms: _212  and  _215
REMARK   90  A    between atoms: _215  and  _216
REMARK   91  A    between atoms: _219  and  _221
REMARK   92  A    between atoms: _221  and  _222
REMARK   93  A    between atoms: _221  and  _224
REMARK   94  A    between atoms: _224  and  _225
REMARK   95  A    between atoms: _228  and  _230
REMARK   96  A    between atoms: _230  and  _231
REMARK   97  A    between atoms: _230  and  _233
REMARK   98  A    between atoms: _235  and  _237
REMARK   99  A    between atoms: _237  and  _238
REMARK  100  A    between atoms: _237  and  _240
REMARK  101  A    between atoms: _240  and  _241
REMARK  102  A    between atoms: _241  and  _242
REMARK  103  A    between atoms: _242  and  _243
REMARK  104  A    between atoms: _252  and  _254
REMARK  105  A    between atoms: _254  and  _255
REMARK  106  A    between atoms: _254  and  _257
REMARK  107  A    between atoms: _257  and  _258
REMARK  108  A    between atoms: _258  and  _259
REMARK  109  A    between atoms: _259  and  _260
REMARK  110  A    between atoms: _260  and  _261
REMARK  111  A    between atoms: _265  and  _267
REMARK  112  A    between atoms: _267  and  _268
REMARK  113  A    between atoms: _267  and  _270
REMARK  114  A    between atoms: _270  and  _271
REMARK  115  A    between atoms: _274  and  _276
REMARK  116  A    between atoms: _276  and  _277
REMARK  117  A    between atoms: _280  and  _282
REMARK  118  A    between atoms: _282  and  _283
REMARK  119  A    between atoms: _282  and  _285
REMARK  120  A    between atoms: _288  and  _290
REMARK  121  A    between atoms: _290  and  _291
REMARK  122  A    between atoms: _290  and  _293
REMARK  123  A    between atoms: _293  and  _294
REMARK  124  A    between atoms: _299  and  _301
REMARK  125  A    between atoms: _301  and  _302
REMARK  126  A    between atoms: _301  and  _304
REMARK  127  A    between atoms: _304  and  _305
REMARK  128  A    between atoms: _311  and  _313
REMARK  129  A    between atoms: _313  and  _314
REMARK  130  A    between atoms: _313  and  _316
REMARK  131  A    between atoms: _316  and  _317
REMARK  132  A    between atoms: _320  and  _322
REMARK  133  A    between atoms: _322  and  _323
REMARK  134  A    between atoms: _326  and  _328
REMARK  135  A    between atoms: _328  and  _329
REMARK  136  A    between atoms: _328  and  _331
REMARK  137  A    between atoms: _331  and  _332
REMARK  138  A    between atoms: _334  and  _336
REMARK  139  A    between atoms: _336  and  _337
REMARK  140  A    between atoms: _336  and  _339
REMARK                            x       y       z     vdW  Elec       q    Type
REMARK                         _______ _______ _______ _____ _____    ______ ____
ROOT
ATOM      1  CA  ALA A   1      31.060   3.067  20.894  0.00  0.00    +0.133 C 
ATOM      2  CB  ALA A   1      32.558   3.344  20.996  0.00  0.00    +0.027 C 
ENDROOT
BRANCH   1   3
ATOM      3  N   ALA A   1      30.758   2.179  19.776  0.00  0.00    -0.239 NA
ATOM      4  H   ALA A   1      31.349   2.225  18.922  0.00  0.00    +0.142 HD
ENDBRANCH   1   3
BRANCH   1   5
ATOM      5  C   ALA A   1      30.327   4.364  20.648  0.00  0.00    +0.224 C 
ATOM      6  O   ALA A   1      30.337   4.879  19.521  0.00  0.00    -0.287 OA
ENDBRANCH   1   5
TORSDOF 2
REMARK  Name = ../refined-set-2016/4g90/4g90_pocket.pdb
REMARK  140 active torsions:
REMARK  status: ('A' for Active; 'I' for Inactive)
REMARK    1  A    between atoms: _1  and  _3
REMARK    2  A    between atoms: _3  and  _4
REMARK    3  A    between atoms: _3  and  _6
REMARK    4  A    between atoms: _6  and  _7
REMARK    5  A    between atoms: _7  and  _8
REMARK    6  A    between atoms: _11  and  _13
REMARK    7  A    between atoms: _13  and  _14
REMARK    8  A    between atoms: _17  and  _19
REMARK    9  A    between atoms: _19  and  _20
REMARK   10  A    between atoms: _19  and  _22
REMARK   11  A    between atoms: _22  and  _23
REMARK   12  A    between atoms: _23  and  _24
REMARK   13  A    between atoms: _24  and  _25
REMARK   14  A    between atoms: _25  and  _26
REMARK   15  A    between atoms: _30  and  _32
REMARK   16  A    between atoms: _32  and  _33
REMARK   17  A    between atoms: _32  and  _35
REMARK   18  A    between atoms: _35  and  _36
REMARK   19  A    between atoms: _42  and  _44
REMARK   20  A    between atoms: _44  and  _45
REMARK   21  A    between atoms: _44  and  _47
REMARK   22  A    between atoms: _47  and  _48
REMARK   23  A    between atoms: _48  and  _49
REMARK   24  A    between atoms: _49  and  _50
REMARK   25  A    between atoms: _59  and  _61
REMARK   26  A    between atoms: _61  and  _62
REMARK   27  A    between atoms: _61  and  _64
REMARK   28  A    between atoms: _64  and  _65
REMARK   29  A    between atoms: _65  and  _66
REMARK   30  A    between atoms: _71  and  _73
REMARK   31  A    between atoms: _73  and  _74
REMARK   32  A    between atoms: _73  and  _76
REMARK   33  A    between atoms: _76  and  _77
REMARK   34  A    between atoms: _82  and  _84
REMARK   35  A    between atoms: _84  and  _85
REMARK   36  A    between atoms: _84  and  _87
REMARK   37  A    between atoms: _87  and  _88
REMARK   38  A    between atoms: _88  and  _89
REMARK   39  A    between atoms: _91  and  _93
REMARK   40  A    between atoms: _93  and  _94
REMARK   41  A    between atoms: _93  and  _96
REMARK   42  A    between atoms: _96  and  _97
REMARK   43  A    between atoms: _100  and  _102
REMARK   44  A    between atoms: _102  and  _103
REMARK   45  A    between atoms: _102  and  _105
REMARK   46  A    between atoms: _105  and  _106
REMARK   47  A    between atoms: _106  and  _107
REMARK   48  A    between atoms: _107  and  _108
REMARK   49  A    between atoms: _117  and  _119
REMARK   50  A    between atoms: _119  and  _120
REMARK   51  A    between atoms: _119  and  _122
REMARK   52  A    between atoms: _122  and  _123
REMARK   53  A    between atoms: _123  and  _124
REMARK   54  A    between atoms: _124  and  _125
REMARK   55  A    between atoms: _125  and  _126
REMARK   56  A    between atoms: _131  and  _132
REMARK   57  A    between atoms: _137  and  _139
REMARK   58  A    between atoms: _139  and  _140
REMARK   59  A    between atoms: _139  and  _142
REMARK   60  A    between atoms: _145  and  _147
REMARK   61  A    between atoms: _147  and  _148
REMARK   62  A    between atoms: _147  and  _150
REMARK   63  A    between atoms: _150  and  _151
REMARK   64  A    between atoms: _156  and  _158
REMARK   65  A    between atoms: _158  and  _159
REMARK   66  A    between atoms: _158  and  _161
REMARK   67  A    between atoms: _161  and  _162
REMARK   68  A    between atoms: _165  and  _167
REMARK   69  A    between atoms: _167  and  _168
REMARK   70  A    between atoms: _167  and  _170
REMARK   71  A    between atoms: _170  and  _171
REMARK   72  A    between atoms: _177  and  _179
REMARK   73  A    between atoms: _179  and  _180
REMARK   74  A    between atoms: _179  and  _182
REMARK   75  A    between atoms: _182  and  _183
REMARK   76  A    between atoms: _183  and  _184
REMARK   77  A    between atoms: _184  and  _185
REMARK   78  A    between atoms: _185  and  _186
REMARK   79  A    between atoms: _190  and  _192
REMARK   80  A    between atoms: _192  and  _193
REMARK   81  A    between atoms: _192  and  _195
REMARK   82  A    between atoms: _195  and  _196
REMARK   83  A    between atoms: _201  and  _203
REMARK   84  A    between atoms: _203  and  _204
REMARK   85  A    between atoms: _203  and  _206
REMARK   86  A    between atoms: _206  and  _207
REMARK   87  A    between atoms: _210  and  _212
REMARK   88  A    between atoms: _212  and  _213
REMARK   89  A    between atoms: _212  and  _215
REMARK   90  A    between atoms: _215  and  _216
REMARK   91  A    between atoms: _219  and  _221
REMARK   92  A    between atoms: _221  and  _222
REMARK   93  A    between atoms: _221  and  _224
REMARK   94  A    between atoms: _224  and  _225
REMARK   95  A    between atoms: _228  and  _230
REMARK   96  A    between atoms: _230  and  _231
REMARK   97  A    between atoms: _230  and  _233
REMARK   98  A    between atoms: _235  and  _237
REMARK   99  A    between atoms: _237  and  _238
REMARK  100  A    between atoms: _237  and  _240
REMARK  101  A    between atoms: _240  and  _241
REMARK  102  A    between atoms: _241  and  _242
REMARK  103  A    between atoms: _242  and  _243
REMARK  104  A    between atoms: _252  and  _254
REMARK  105  A    between atoms: _254  and  _255
REMARK  106  A    between atoms: _254  and  _257
REMARK  107  A    between atoms: _257  and  _258
REMARK  108  A    between atoms: _258  and  _259
REMARK  109  A    between atoms: _259  and  _260
REMARK  110  A    between atoms: _260  and  _261
REMARK  111  A    between atoms: _265  and  _267
REMARK  112  A    between atoms: _267  and  _268
REMARK  113  A    between atoms: _267  and  _270
REMARK  114  A    between atoms: _270  and  _271
REMARK  115  A    between atoms: _274  and  _276
REMARK  116  A    between atoms: _276  and  _277
REMARK  117  A    between atoms: _280  and  _282
REMARK  118  A    between atoms: _282  and  _283
REMARK  119  A    between atoms: _282  and  _285
REMARK  120  A    between atoms: _288  and  _290
REMARK  121  A    between atoms: _290  and  _291
REMARK  122  A    between atoms: _290  and  _293
REMARK  123  A    between atoms: _293  and  _294
REMARK  124  A    between atoms: _299  and  _301
REMARK  125  A    between atoms: _301  and  _302
REMARK  126  A    between atoms: _301  and  _304
REMARK  127  A    between atoms: _304  and  _305
REMARK  128  A    between atoms: _311  and  _313
REMARK  129  A    between atoms: _313  and  _314
REMARK  130  A    between atoms: _313  and  _316
REMARK  131  A    between atoms: _316  and  _317
REMARK  132  A    between atoms: _320  and  _322
REMARK  133  A    between atoms: _322  and  _323
REMARK  134  A    between atoms: _326  and  _328
REMARK  135  A    between atoms: _328  and  _329
REMARK  136  A    between atoms: _328  and  _331
REMARK  137  A    between atoms: _331  and  _332
REMARK  138  A    between atoms: _334  and  _336
REMARK  139  A    between atoms: _336  and  _337
REMARK  140  A    between atoms: _336  and  _339
REMARK                            x       y       z     vdW  Elec       q    Type
REMARK                         _______ _______ _______ _____ _____    ______ ____
ROOT
ATOM      1  C   PHE A   3      33.289  -0.339  15.740  0.00  0.00    +0.241 C 
ATOM      2  N   ASP A   4      32.836  -1.036  16.784  0.00  0.00    -0.297 N 
ATOM      3  H   ASP A   4      31.834  -0.974  17.057  0.00  0.00    +0.150 HD
ATOM      4  O   PHE A   3      34.424  -0.473  15.316  0.00  0.00    -0.273 OA
ENDROOT
BRANCH   2   5
ATOM      5  CA  ASP A   4      33.753  -1.889  17.546  0.00  0.00    +0.160 C 
BRANCH   5   6
ATOM      6  C   ASP A   4      33.824  -3.331  17.031  0.00  0.00    +0.241 C 
ATOM      7  O   ASP A   4      34.907  -3.916  16.973  0.00  0.00    -0.273 OA
ATOM      8  N   ALA A   5      32.674  -3.893  16.654  0.00  0.00    -0.297 N 
ATOM      9  H   ALA A   5      31.817  -3.308  16.582  0.00  0.00    +0.150 HD
BRANCH   8  10
ATOM     10  CA  ALA A   5      32.602  -5.321  16.340  0.00  0.00    +0.149 C 
ATOM     11  CB  ALA A   5      32.926  -6.148  17.584  0.00  0.00    +0.031 C 
BRANCH  10  12
ATOM     12  C   ALA A   5      31.227  -5.707  15.847  0.00  0.00    +0.241 C 
ATOM     13  O   ALA A   5      30.266  -4.965  15.997  0.00  0.00    -0.273 OA
ATOM     14  N   SER A   6      31.140  -6.892  15.258  0.00  0.00    -0.295 N 
ATOM     15  H   SER A   6      32.009  -7.401  14.998  0.00  0.00    +0.150 HD
BRANCH  14  16
ATOM     16  CA  SER A   6      29.850  -7.488  14.971  0.00  0.00    +0.178 C 
BRANCH  16  17
ATOM     17  C   SER A   6      29.885  -8.899  15.526  0.00  0.00    +0.243 C 
ATOM     18  N   VAL A   7      28.772  -9.335  16.102  0.00  0.00    -0.295 N 
ATOM     19  H   VAL A   7      27.926  -8.730  16.105  0.00  0.00    +0.150 HD
ATOM     20  O   SER A   6      30.913  -9.574  15.449  0.00  0.00    -0.273 OA
BRANCH  18  21
ATOM     21  CA  VAL A   7      28.718 -10.646  16.730  0.00  0.00    +0.176 C 
BRANCH  21  22
ATOM     22  C   VAL A   7      27.470 -11.414  16.305  0.00  0.00    +0.382 C 
ATOM     23  OXT VAL A   7      27.423 -12.625  16.504  0.00  0.00    -0.244 OA
ATOM     24  O   VAL A   7      26.504 -10.857  15.766  0.00  0.00    -0.244 OA
ENDBRANCH  21  22
BRANCH  21  25
ATOM     25  CB  VAL A   7      28.773 -10.553  18.278  0.00  0.00    +0.029 C 
ATOM     26  CG2 VAL A   7      27.612  -9.756  18.809  0.00  0.00    +0.002 C 
ATOM     27  CG1 VAL A   7      30.101  -9.956  18.733  0.00  0.00    +0.002 C 
ENDBRANCH  21  25
ENDBRANCH  18  21
ENDBRANCH  16  17
BRANCH  16  28
ATOM     28  CB  SER A   6      29.584  -7.525  13.470  0.00  0.00    +0.166 C 
BRANCH  28  29
ATOM     29  OG  SER A   6      30.385  -8.525  12.883  0.00  0.00    -0.380 OA
ATOM     30  H   SER A   6      30.161  -9.403  13.283  0.00  0.00    +0.211 HD
ENDBRANCH  28  29
ENDBRANCH  16  28
ENDBRANCH  14  16
ENDBRANCH  10  12
ENDBRANCH   8  10
ENDBRANCH   5   6
BRANCH   5  31
ATOM     31  CB  ASP A   4      33.383  -1.900  19.036  0.00  0.00    +0.143 C 
BRANCH  31  32
ATOM     32  CG  ASP A   4      34.582  -2.153  19.933  0.00  0.00    +0.367 C 
ATOM     33  OD2 ASP A   4      34.467  -2.997  20.858  0.00  0.00    -0.246 OA
ATOM     34  OD1 ASP A   4      35.637  -1.506  19.716  0.00  0.00    -0.246 OA
ENDBRANCH  31  32
ENDBRANCH   5  31
ENDBRANCH   2   5
BRANCH   1  35
ATOM     35  CA  PHE A   3      32.357   0.663  15.078  0.00  0.00    +0.153 C 
BRANCH  35  38
ATOM     36  C   HIS A   2      32.525   2.772  16.268  0.00  0.00    +0.241 C 
ATOM     37  O   HIS A   2      31.564   2.481  16.978  0.00  0.00    -0.273 OA
ATOM     38  N   PHE A   3      32.950   1.988  15.277  0.00  0.00    -0.297 N 
ATOM     39  H   PHE A   3      33.705   2.318  14.643  0.00  0.00    +0.150 HD
BRANCH  36  40
ATOM     40  CA  HIS A   2      33.285   4.071  16.508  0.00  0.00    +0.155 C 
BRANCH  40  42
ATOM     41  C   VAL A   1      32.574   6.393  16.622  0.00  0.00    +0.238 C 
ATOM     42  N   HIS A   2      32.378   5.122  16.976  0.00  0.00    -0.297 N 
ATOM     43  H   HIS A   2      31.575   4.875  17.589  0.00  0.00    +0.150 HD
ATOM     44  O   VAL A   1      33.536   6.735  15.957  0.00  0.00    -0.274 OA
BRANCH  41  45
ATOM     45  CA  VAL A   1      31.538   7.444  17.067  0.00  0.00    +0.145 C 
BRANCH  45  46
ATOM     46  CB  VAL A   1      32.187   8.410  18.099  0.00  0.00    +0.025 C 
ATOM     47  CG2 VAL A   1      32.525   7.680  19.402  0.00  0.00    +0.002 C 
ATOM     48  CG1 VAL A   1      31.276   9.605  18.362  0.00  0.00    +0.002 C 
ENDBRANCH  45  46
BRANCH  45  49
ATOM     49  N   VAL A   1      30.307   6.851  17.568  0.00  0.00    -0.238 NA
ATOM     50  H   VAL A   1      30.356   6.207  18.383  0.00  0.00    +0.142 HD
ENDBRANCH  45  49
ENDBRANCH  41  45
ENDBRANCH  40  42
BRANCH  40  51
ATOM     51  CB  HIS A   2      34.415   3.812  17.518  0.00  0.00    +0.076 C 
BRANCH  51  52
ATOM     52  CG  HIS A   2      35.194   5.035  17.905  0.00  0.00    +0.082 A 
ATOM     53  CD2 HIS A   2      35.368   5.640  19.107  0.00  0.00    +0.115 A 
ATOM     54  NE2 HIS A   2      36.192   6.722  18.903  0.00  0.00    -0.221 NA
ATOM     55  CE1 HIS A   2      36.528   6.770  17.625  0.00  0.00    +0.199 A 
ATOM     56  ND1 HIS A   2      35.950   5.756  17.004  0.00  0.00    -0.227 NA
ENDBRANCH  51  52
ENDBRANCH  40  51
ENDBRANCH  36  40
ENDBRANCH  35  38
BRANCH  35  57
ATOM     57  CB  PHE A   3      32.204   0.342  13.577  0.00  0.00    +0.055 C 
BRANCH  57  58
ATOM     58  CG  PHE A   3      31.393  -0.894  13.304  0.00  0.00    -0.020 A 
ATOM     59  CD2 PHE A   3      31.979  -2.153  13.333  0.00  0.00    -0.004 A 
ATOM     60  CE2 PHE A   3      31.234  -3.296  13.097  0.00  0.00    -0.000 A 
ATOM     61  CZ  PHE A   3      29.873  -3.188  12.846  0.00  0.00    -0.000 A 
ATOM     62  CE1 PHE A   3      29.277  -1.945  12.828  0.00  0.00    -0.000 A 
ATOM     63  CD1 PHE A   3      30.034  -0.801  13.060  0.00  0.00    -0.004 A 
ENDBRANCH  57  58
ENDBRANCH  35  57
ENDBRANCH   1  35
TORSDOF 24
REMARK  Name = ../refined-set-2016/4g90/4g90_pocket.pdb
REMARK  140 active torsions:
REMARK  status: ('A' for Active; 'I' for Inactive)
REMARK    1  A    between atoms: _1  and  _3
REMARK    2  A    between atoms: _3  and  _4
REMARK    3  A    between atoms: _3  and  _6
REMARK    4  A    between atoms: _6  and  _7
REMARK    5  A    between atoms: _7  and  _8
REMARK    6  A    between atoms: _11  and  _13
REMARK    7  A    between atoms: _13  and  _14
REMARK    8  A    between atoms: _17  and  _19
REMARK    9  A    between atoms: _19  and  _20
REMARK   10  A    between atoms: _19  and  _22
REMARK   11  A    between atoms: _22  and  _23
REMARK   12  A    between atoms: _23  and  _24
REMARK   13  A    between atoms: _24  and  _25
REMARK   14  A    between atoms: _25  and  _26
REMARK   15  A    between atoms: _30  and  _32
REMARK   16  A    between atoms: _32  and  _33
REMARK   17  A    between atoms: _32  and  _35
REMARK   18  A    between atoms: _35  and  _36
REMARK   19  A    between atoms: _42  and  _44
REMARK   20  A    between atoms: _44  and  _45
REMARK   21  A    between atoms: _44  and  _47
REMARK   22  A    between atoms: _47  and  _48
REMARK   23  A    between atoms: _48  and  _49
REMARK   24  A    between atoms: _49  and  _50
REMARK   25  A    between atoms: _59  and  _61
REMARK   26  A    between atoms: _61  and  _62
REMARK   27  A    between atoms: _61  and  _64
REMARK   28  A    between atoms: _64  and  _65
REMARK   29  A    between atoms: _65  and  _66
REMARK   30  A    between atoms: _71  and  _73
REMARK   31  A    between atoms: _73  and  _74
REMARK   32  A    between atoms: _73  and  _76
REMARK   33  A    between atoms: _76  and  _77
REMARK   34  A    between atoms: _82  and  _84
REMARK   35  A    between atoms: _84  and  _85
REMARK   36  A    between atoms: _84  and  _87
REMARK   37  A    between atoms: _87  and  _88
REMARK   38  A    between atoms: _88  and  _89
REMARK   39  A    between atoms: _91  and  _93
REMARK   40  A    between atoms: _93  and  _94
REMARK   41  A    between atoms: _93  and  _96
REMARK   42  A    between atoms: _96  and  _97
REMARK   43  A    between atoms: _100  and  _102
REMARK   44  A    between atoms: _102  and  _103
REMARK   45  A    between atoms: _102  and  _105
REMARK   46  A    between atoms: _105  and  _106
REMARK   47  A    between atoms: _106  and  _107
REMARK   48  A    between atoms: _107  and  _108
REMARK   49  A    between atoms: _117  and  _119
REMARK   50  A    between atoms: _119  and  _120
REMARK   51  A    between atoms: _119  and  _122
REMARK   52  A    between atoms: _122  and  _123
REMARK   53  A    between atoms: _123  and  _124
REMARK   54  A    between atoms: _124  and  _125
REMARK   55  A    between atoms: _125  and  _126
REMARK   56  A    between atoms: _131  and  _132
REMARK   57  A    between atoms: _137  and  _139
REMARK   58  A    between atoms: _139  and  _140
REMARK   59  A    between atoms: _139  and  _142
REMARK   60  A    between atoms: _145  and  _147
REMARK   61  A    between atoms: _147  and  _148
REMARK   62  A    between atoms: _147  and  _150
REMARK   63  A    between atoms: _150  and  _151
REMARK   64  A    between atoms: _156  and  _158
REMARK   65  A    between atoms: _158  and  _159
REMARK   66  A    between atoms: _158  and  _161
REMARK   67  A    between atoms: _161  and  _162
REMARK   68  A    between atoms: _165  and  _167
REMARK   69  A    between atoms: _167  and  _168
REMARK   70  A    between atoms: _167  and  _170
REMARK   71  A    between atoms: _170  and  _171
REMARK   72  A    between atoms: _177  and  _179
REMARK   73  A    between atoms: _179  and  _180
REMARK   74  A    between atoms: _179  and  _182
REMARK   75  A    between atoms: _182  and  _183
REMARK   76  A    between atoms: _183  and  _184
REMARK   77  A    between atoms: _184  and  _185
REMARK   78  A    between atoms: _185  and  _186
REMARK   79  A    between atoms: _190  and  _192
REMARK   80  A    between atoms: _192  and  _193
REMARK   81  A    between atoms: _192  and  _195
REMARK   82  A    between atoms: _195  and  _196
REMARK   83  A    between atoms: _201  and  _203
REMARK   84  A    between atoms: _203  and  _204
REMARK   85  A    between atoms: _203  and  _206
REMARK   86  A    between atoms: _206  and  _207
REMARK   87  A    between atoms: _210  and  _212
REMARK   88  A    between atoms: _212  and  _213
REMARK   89  A    between atoms: _212  and  _215
REMARK   90  A    between atoms: _215  and  _216
REMARK   91  A    between atoms: _219  and  _221
REMARK   92  A    between atoms: _221  and  _222
REMARK   93  A    between atoms: _221  and  _224
REMARK   94  A    between atoms: _224  and  _225
REMARK   95  A    between atoms: _228  and  _230
REMARK   96  A    between atoms: _230  and  _231
REMARK   97  A    between atoms: _230  and  _233
REMARK   98  A    between atoms: _235  and  _237
REMARK   99  A    between atoms: _237  and  _238
REMARK  100  A    between atoms: _237  and  _240
REMARK  101  A    between atoms: _240  and  _241
REMARK  102  A    between atoms: _241  and  _242
REMARK  103  A    between atoms: _242  and  _243
REMARK  104  A    between atoms: _252  and  _254
REMARK  105  A    between atoms: _254  and  _255
REMARK  106  A    between atoms: _254  and  _257
REMARK  107  A    between atoms: _257  and  _258
REMARK  108  A    between atoms: _258  and  _259
REMARK  109  A    between atoms: _259  and  _260
REMARK  110  A    between atoms: _260  and  _261
REMARK  111  A    between atoms: _265  and  _267
REMARK  112  A    between atoms: _267  and  _268
REMARK  113  A    between atoms: _267  and  _270
REMARK  114  A    between atoms: _270  and  _271
REMARK  115  A    between atoms: _274  and  _276
REMARK  116  A    between atoms: _276  and  _277
REMARK  117  A    between atoms: _280  and  _282
REMARK  118  A    between atoms: _282  and  _283
REMARK  119  A    between atoms: _282  and  _285
REMARK  120  A    between atoms: _288  and  _290
REMARK  121  A    between atoms: _290  and  _291
REMARK  122  A    between atoms: _290  and  _293
REMARK  123  A    between atoms: _293  and  _294
REMARK  124  A    between atoms: _299  and  _301
REMARK  125  A    between atoms: _301  and  _302
REMARK  126  A    between atoms: _301  and  _304
REMARK  127  A    between atoms: _304  and  _305
REMARK  128  A    between atoms: _311  and  _313
REMARK  129  A    between atoms: _313  and  _314
REMARK  130  A    between atoms: _313  and  _316
REMARK  131  A    between atoms: _316  and  _317
REMARK  132  A    between atoms: _320  and  _322
REMARK  133  A    between atoms: _322  and  _323
REMARK  134  A    between atoms: _326  and  _328
REMARK  135  A    between atoms: _328  and  _329
REMARK  136  A    between atoms: _328  and  _331
REMARK  137  A    between atoms: _331  and  _332
REMARK  138  A    between atoms: _334  and  _336
REMARK  139  A    between atoms: _336  and  _337
REMARK  140  A    between atoms: _336  and  _339
REMARK                            x       y       z     vdW  Elec       q    Type
REMARK                         _______ _______ _______ _____ _____    ______ ____
ROOT
ATOM      1  O   HOH     1      37.410  -0.551  21.369  0.00  0.00    +0.000 OA
ENDROOT
TORSDOF 0
REMARK  Name = ../refined-set-2016/4g90/4g90_pocket.pdb
REMARK  140 active torsions:
REMARK  status: ('A' for Active; 'I' for Inactive)
REMARK    1  A    between atoms: _1  and  _3
REMARK    2  A    between atoms: _3  and  _4
REMARK    3  A    between atoms: _3  and  _6
REMARK    4  A    between atoms: _6  and  _7
REMARK    5  A    between atoms: _7  and  _8
REMARK    6  A    between atoms: _11  and  _13
REMARK    7  A    between atoms: _13  and  _14
REMARK    8  A    between atoms: _17  and  _19
REMARK    9  A    between atoms: _19  and  _20
REMARK   10  A    between atoms: _19  and  _22
REMARK   11  A    between atoms: _22  and  _23
REMARK   12  A    between atoms: _23  and  _24
REMARK   13  A    between atoms: _24  and  _25
REMARK   14  A    between atoms: _25  and  _26
REMARK   15  A    between atoms: _30  and  _32
REMARK   16  A    between atoms: _32  and  _33
REMARK   17  A    between atoms: _32  and  _35
REMARK   18  A    between atoms: _35  and  _36
REMARK   19  A    between atoms: _42  and  _44
REMARK   20  A    between atoms: _44  and  _45
REMARK   21  A    between atoms: _44  and  _47
REMARK   22  A    between atoms: _47  and  _48
REMARK   23  A    between atoms: _48  and  _49
REMARK   24  A    between atoms: _49  and  _50
REMARK   25  A    between atoms: _59  and  _61
REMARK   26  A    between atoms: _61  and  _62
REMARK   27  A    between atoms: _61  and  _64
REMARK   28  A    between atoms: _64  and  _65
REMARK   29  A    between atoms: _65  and  _66
REMARK   30  A    between atoms: _71  and  _73
REMARK   31  A    between atoms: _73  and  _74
REMARK   32  A    between atoms: _73  and  _76
REMARK   33  A    between atoms: _76  and  _77
REMARK   34  A    between atoms: _82  and  _84
REMARK   35  A    between atoms: _84  and  _85
REMARK   36  A    between atoms: _84  and  _87
REMARK   37  A    between atoms: _87  and  _88
REMARK   38  A    between atoms: _88  and  _89
REMARK   39  A    between atoms: _91  and  _93
REMARK   40  A    between atoms: _93  and  _94
REMARK   41  A    between atoms: _93  and  _96
REMARK   42  A    between atoms: _96  and  _97
REMARK   43  A    between atoms: _100  and  _102
REMARK   44  A    between atoms: _102  and  _103
REMARK   45  A    between atoms: _102  and  _105
REMARK   46  A    between atoms: _105  and  _106
REMARK   47  A    between atoms: _106  and  _107
REMARK   48  A    between atoms: _107  and  _108
REMARK   49  A    between atoms: _117  and  _119
REMARK   50  A    between atoms: _119  and  _120
REMARK   51  A    between atoms: _119  and  _122
REMARK   52  A    between atoms: _122  and  _123
REMARK   53  A    between atoms: _123  and  _124
REMARK   54  A    between atoms: _124  and  _125
REMARK   55  A    between atoms: _125  and  _126
REMARK   56  A    between atoms: _131  and  _132
REMARK   57  A    between atoms: _137  and  _139
REMARK   58  A    between atoms: _139  and  _140
REMARK   59  A    between atoms: _139  and  _142
REMARK   60  A    between atoms: _145  and  _147
REMARK   61  A    between atoms: _147  and  _148
REMARK   62  A    between atoms: _147  and  _150
REMARK   63  A    between atoms: _150  and  _151
REMARK   64  A    between atoms: _156  and  _158
REMARK   65  A    between atoms: _158  and  _159
REMARK   66  A    between atoms: _158  and  _161
REMARK   67  A    between atoms: _161  and  _162
REMARK   68  A    between atoms: _165  and  _167
REMARK   69  A    between atoms: _167  and  _168
REMARK   70  A    between atoms: _167  and  _170
REMARK   71  A    between atoms: _170  and  _171
REMARK   72  A    between atoms: _177  and  _179
REMARK   73  A    between atoms: _179  and  _180
REMARK   74  A    between atoms: _179  and  _182
REMARK   75  A    between atoms: _182  and  _183
REMARK   76  A    between atoms: _183  and  _184
REMARK   77  A    between atoms: _184  and  _185
REMARK   78  A    between atoms: _185  and  _186
REMARK   79  A    between atoms: _190  and  _192
REMARK   80  A    between atoms: _192  and  _193
REMARK   81  A    between atoms: _192  and  _195
REMARK   82  A    between atoms: _195  and  _196
REMARK   83  A    between atoms: _201  and  _203
REMARK   84  A    between atoms: _203  and  _204
REMARK   85  A    between atoms: _203  and  _206
REMARK   86  A    between atoms: _206  and  _207
REMARK   87  A    between atoms: _210  and  _212
REMARK   88  A    between atoms: _212  and  _213
REMARK   89  A    between atoms: _212  and  _215
REMARK   90  A    between atoms: _215  and  _216
REMARK   91  A    between atoms: _219  and  _221
REMARK   92  A    between atoms: _221  and  _222
REMARK   93  A    between atoms: _221  and  _224
REMARK   94  A    between atoms: _224  and  _225
REMARK   95  A    between atoms: _228  and  _230
REMARK   96  A    between atoms: _230  and  _231
REMARK   97  A    between atoms: _230  and  _233
REMARK   98  A    between atoms: _235  and  _237
REMARK   99  A    between atoms: _237  and  _238
REMARK  100  A    between atoms: _237  and  _240
REMARK  101  A    between atoms: _240  and  _241
REMARK  102  A    between atoms: _241  and  _242
REMARK  103  A    between atoms: _242  and  _243
REMARK  104  A    between atoms: _252  and  _254
REMARK  105  A    between atoms: _254  and  _255
REMARK  106  A    between atoms: _254  and  _257
REMARK  107  A    between atoms: _257  and  _258
REMARK  108  A    between atoms: _258  and  _259
REMARK  109  A    between atoms: _259  and  _260
REMARK  110  A    between atoms: _260  and  _261
REMARK  111  A    between atoms: _265  and  _267
REMARK  112  A    between atoms: _267  and  _268
REMARK  113  A    between atoms: _267  and  _270
REMARK  114  A    between atoms: _270  and  _271
REMARK  115  A    between atoms: _274  and  _276
REMARK  116  A    between atoms: _276  and  _277
REMARK  117  A    between atoms: _280  and  _282
REMARK  118  A    between atoms: _282  and  _283
REMARK  119  A    between atoms: _282  and  _285
REMARK  120  A    between atoms: _288  and  _290
REMARK  121  A    between atoms: _290  and  _291
REMARK  122  A    between atoms: _290  and  _293
REMARK  123  A    between atoms: _293  and  _294
REMARK  124  A    between atoms: _299  and  _301
REMARK  125  A    between atoms: _301  and  _302
REMARK  126  A    between atoms: _301  and  _304
REMARK  127  A    between atoms: _304  and  _305
REMARK  128  A    between atoms: _311  and  _313
REMARK  129  A    between atoms: _313  and  _314
REMARK  130  A    between atoms: _313  and  _316
REMARK  131  A    between atoms: _316  and  _317
REMARK  132  A    between atoms: _320  and  _322
REMARK  133  A    between atoms: _322  and  _323
REMARK  134  A    between atoms: _326  and  _328
REMARK  135  A    between atoms: _328  and  _329
REMARK  136  A    between atoms: _328  and  _331
REMARK  137  A    between atoms: _331  and  _332
REMARK  138  A    between atoms: _334  and  _336
REMARK  139  A    between atoms: _336  and  _337
REMARK  140  A    between atoms: _336  and  _339
REMARK                            x       y       z     vdW  Elec       q    Type
REMARK                         _______ _______ _______ _____ _____    ______ ____
ROOT
ATOM      1  O   HOH     1      34.083   8.520  14.169  0.00  0.00    +0.000 OA
ENDROOT
TORSDOF 0
REMARK  Name = ../refined-set-2016/4g90/4g90_pocket.pdb
REMARK  140 active torsions:
REMARK  status: ('A' for Active; 'I' for Inactive)
REMARK    1  A    between atoms: _1  and  _3
REMARK    2  A    between atoms: _3  and  _4
REMARK    3  A    between atoms: _3  and  _6
REMARK    4  A    between atoms: _6  and  _7
REMARK    5  A    between atoms: _7  and  _8
REMARK    6  A    between atoms: _11  and  _13
REMARK    7  A    between atoms: _13  and  _14
REMARK    8  A    between atoms: _17  and  _19
REMARK    9  A    between atoms: _19  and  _20
REMARK   10  A    between atoms: _19  and  _22
REMARK   11  A    between atoms: _22  and  _23
REMARK   12  A    between atoms: _23  and  _24
REMARK   13  A    between atoms: _24  and  _25
REMARK   14  A    between atoms: _25  and  _26
REMARK   15  A    between atoms: _30  and  _32
REMARK   16  A    between atoms: _32  and  _33
REMARK   17  A    between atoms: _32  and  _35
REMARK   18  A    between atoms: _35  and  _36
REMARK   19  A    between atoms: _42  and  _44
REMARK   20  A    between atoms: _44  and  _45
REMARK   21  A    between atoms: _44  and  _47
REMARK   22  A    between atoms: _47  and  _48
REMARK   23  A    between atoms: _48  and  _49
REMARK   24  A    between atoms: _49  and  _50
REMARK   25  A    between atoms: _59  and  _61
REMARK   26  A    between atoms: _61  and  _62
REMARK   27  A    between atoms: _61  and  _64
REMARK   28  A    between atoms: _64  and  _65
REMARK   29  A    between atoms: _65  and  _66
REMARK   30  A    between atoms: _71  and  _73
REMARK   31  A    between atoms: _73  and  _74
REMARK   32  A    between atoms: _73  and  _76
REMARK   33  A    between atoms: _76  and  _77
REMARK   34  A    between atoms: _82  and  _84
REMARK   35  A    between atoms: _84  and  _85
REMARK   36  A    between atoms: _84  and  _87
REMARK   37  A    between atoms: _87  and  _88
REMARK   38  A    between atoms: _88  and  _89
REMARK   39  A    between atoms: _91  and  _93
REMARK   40  A    between atoms: _93  and  _94
REMARK   41  A    between atoms: _93  and  _96
REMARK   42  A    between atoms: _96  and  _97
REMARK   43  A    between atoms: _100  and  _102
REMARK   44  A    between atoms: _102  and  _103
REMARK   45  A    between atoms: _102  and  _105
REMARK   46  A    between atoms: _105  and  _106
REMARK   47  A    between atoms: _106  and  _107
REMARK   48  A    between atoms: _107  and  _108
REMARK   49  A    between atoms: _117  and  _119
REMARK   50  A    between atoms: _119  and  _120
REMARK   51  A    between atoms: _119  and  _122
REMARK   52  A    between atoms: _122  and  _123
REMARK   53  A    between atoms: _123  and  _124
REMARK   54  A    between atoms: _124  and  _125
REMARK   55  A    between atoms: _125  and  _126
REMARK   56  A    between atoms: _131  and  _132
REMARK   57  A    between atoms: _137  and  _139
REMARK   58  A    between atoms: _139  and  _140
REMARK   59  A    between atoms: _139  and  _142
REMARK   60  A    between atoms: _145  and  _147
REMARK   61  A    between atoms: _147  and  _148
REMARK   62  A    between atoms: _147  and  _150
REMARK   63  A    between atoms: _150  and  _151
REMARK   64  A    between atoms: _156  and  _158
REMARK   65  A    between atoms: _158  and  _159
REMARK   66  A    between atoms: _158  and  _161
REMARK   67  A    between atoms: _161  and  _162
REMARK   68  A    between atoms: _165  and  _167
REMARK   69  A    between atoms: _167  and  _168
REMARK   70  A    between atoms: _167  and  _170
REMARK   71  A    between atoms: _170  and  _171
REMARK   72  A    between atoms: _177  and  _179
REMARK   73  A    between atoms: _179  and  _180
REMARK   74  A    between atoms: _179  and  _182
REMARK   75  A    between atoms: _182  and  _183
REMARK   76  A    between atoms: _183  and  _184
REMARK   77  A    between atoms: _184  and  _185
REMARK   78  A    between atoms: _185  and  _186
REMARK   79  A    between atoms: _190  and  _192
REMARK   80  A    between atoms: _192  and  _193
REMARK   81  A    between atoms: _192  and  _195
REMARK   82  A    between atoms: _195  and  _196
REMARK   83  A    between atoms: _201  and  _203
REMARK   84  A    between atoms: _203  and  _204
REMARK   85  A    between atoms: _203  and  _206
REMARK   86  A    between atoms: _206  and  _207
REMARK   87  A    between atoms: _210  and  _212
REMARK   88  A    between atoms: _212  and  _213
REMARK   89  A    between atoms: _212  and  _215
REMARK   90  A    between atoms: _215  and  _216
REMARK   91  A    between atoms: _219  and  _221
REMARK   92  A    between atoms: _221  and  _222
REMARK   93  A    between atoms: _221  and  _224
REMARK   94  A    between atoms: _224  and  _225
REMARK   95  A    between atoms: _228  and  _230
REMARK   96  A    between atoms: _230  and  _231
REMARK   97  A    between atoms: _230  and  _233
REMARK   98  A    between atoms: _235  and  _237
REMARK   99  A    between atoms: _237  and  _238
REMARK  100  A    between atoms: _237  and  _240
REMARK  101  A    between atoms: _240  and  _241
REMARK  102  A    between atoms: _241  and  _242
REMARK  103  A    between atoms: _242  and  _243
REMARK  104  A    between atoms: _252  and  _254
REMARK  105  A    between atoms: _254  and  _255
REMARK  106  A    between atoms: _254  and  _257
REMARK  107  A    between atoms: _257  and  _258
REMARK  108  A    between atoms: _258  and  _259
REMARK  109  A    between atoms: _259  and  _260
REMARK  110  A    between atoms: _260  and  _261
REMARK  111  A    between atoms: _265  and  _267
REMARK  112  A    between atoms: _267  and  _268
REMARK  113  A    between atoms: _267  and  _270
REMARK  114  A    between atoms: _270  and  _271
REMARK  115  A    between atoms: _274  and  _276
REMARK  116  A    between atoms: _276  and  _277
REMARK  117  A    between atoms: _280  and  _282
REMARK  118  A    between atoms: _282  and  _283
REMARK  119  A    between atoms: _282  and  _285
REMARK  120  A    between atoms: _288  and  _290
REMARK  121  A    between atoms: _290  and  _291
REMARK  122  A    between atoms: _290  and  _293
REMARK  123  A    between atoms: _293  and  _294
REMARK  124  A    between atoms: _299  and  _301
REMARK  125  A    between atoms: _301  and  _302
REMARK  126  A    between atoms: _301  and  _304
REMARK  127  A    between atoms: _304  and  _305
REMARK  128  A    between atoms: _311  and  _313
REMARK  129  A    between atoms: _313  and  _314
REMARK  130  A    between atoms: _313  and  _316
REMARK  131  A    between atoms: _316  and  _317
REMARK  132  A    between atoms: _320  and  _322
REMARK  133  A    between atoms: _322  and  _323
REMARK  134  A    between atoms: _326  and  _328
REMARK  135  A    between atoms: _328  and  _329
REMARK  136  A    between atoms: _328  and  _331
REMARK  137  A    between atoms: _331  and  _332
REMARK  138  A    between atoms: _334  and  _336
REMARK  139  A    between atoms: _336  and  _337
REMARK  140  A    between atoms: _336  and  _339
REMARK                            x       y       z     vdW  Elec       q    Type
REMARK                         _______ _______ _______ _____ _____    ______ ____
ROOT
ATOM      1  O   HOH     1      34.100   5.835  12.553  0.00  0.00    +0.000 OA
ENDROOT
TORSDOF 0
REMARK  Name = ../refined-set-2016/4g90/4g90_pocket.pdb
REMARK  140 active torsions:
REMARK  status: ('A' for Active; 'I' for Inactive)
REMARK    1  A    between atoms: _1  and  _3
REMARK    2  A    between atoms: _3  and  _4
REMARK    3  A    between atoms: _3  and  _6
REMARK    4  A    between atoms: _6  and  _7
REMARK    5  A    between atoms: _7  and  _8
REMARK    6  A    between atoms: _11  and  _13
REMARK    7  A    between atoms: _13  and  _14
REMARK    8  A    between atoms: _17  and  _19
REMARK    9  A    between atoms: _19  and  _20
REMARK   10  A    between atoms: _19  and  _22
REMARK   11  A    between atoms: _22  and  _23
REMARK   12  A    between atoms: _23  and  _24
REMARK   13  A    between atoms: _24  and  _25
REMARK   14  A    between atoms: _25  and  _26
REMARK   15  A    between atoms: _30  and  _32
REMARK   16  A    between atoms: _32  and  _33
REMARK   17  A    between atoms: _32  and  _35
REMARK   18  A    between atoms: _35  and  _36
REMARK   19  A    between atoms: _42  and  _44
REMARK   20  A    between atoms: _44  and  _45
REMARK   21  A    between atoms: _44  and  _47
REMARK   22  A    between atoms: _47  and  _48
REMARK   23  A    between atoms: _48  and  _49
REMARK   24  A    between atoms: _49  and  _50
REMARK   25  A    between atoms: _59  and  _61
REMARK   26  A    between atoms: _61  and  _62
REMARK   27  A    between atoms: _61  and  _64
REMARK   28  A    between atoms: _64  and  _65
REMARK   29  A    between atoms: _65  and  _66
REMARK   30  A    between atoms: _71  and  _73
REMARK   31  A    between atoms: _73  and  _74
REMARK   32  A    between atoms: _73  and  _76
REMARK   33  A    between atoms: _76  and  _77
REMARK   34  A    between atoms: _82  and  _84
REMARK   35  A    between atoms: _84  and  _85
REMARK   36  A    between atoms: _84  and  _87
REMARK   37  A    between atoms: _87  and  _88
REMARK   38  A    between atoms: _88  and  _89
REMARK   39  A    between atoms: _91  and  _93
REMARK   40  A    between atoms: _93  and  _94
REMARK   41  A    between atoms: _93  and  _96
REMARK   42  A    between atoms: _96  and  _97
REMARK   43  A    between atoms: _100  and  _102
REMARK   44  A    between atoms: _102  and  _103
REMARK   45  A    between atoms: _102  and  _105
REMARK   46  A    between atoms: _105  and  _106
REMARK   47  A    between atoms: _106  and  _107
REMARK   48  A    between atoms: _107  and  _108
REMARK   49  A    between atoms: _117  and  _119
REMARK   50  A    between atoms: _119  and  _120
REMARK   51  A    between atoms: _119  and  _122
REMARK   52  A    between atoms: _122  and  _123
REMARK   53  A    between atoms: _123  and  _124
REMARK   54  A    between atoms: _124  and  _125
REMARK   55  A    between atoms: _125  and  _126
REMARK   56  A    between atoms: _131  and  _132
REMARK   57  A    between atoms: _137  and  _139
REMARK   58  A    between atoms: _139  and  _140
REMARK   59  A    between atoms: _139  and  _142
REMARK   60  A    between atoms: _145  and  _147
REMARK   61  A    between atoms: _147  and  _148
REMARK   62  A    between atoms: _147  and  _150
REMARK   63  A    between atoms: _150  and  _151
REMARK   64  A    between atoms: _156  and  _158
REMARK   65  A    between atoms: _158  and  _159
REMARK   66  A    between atoms: _158  and  _161
REMARK   67  A    between atoms: _161  and  _162
REMARK   68  A    between atoms: _165  and  _167
REMARK   69  A    between atoms: _167  and  _168
REMARK   70  A    between atoms: _167  and  _170
REMARK   71  A    between atoms: _170  and  _171
REMARK   72  A    between atoms: _177  and  _179
REMARK   73  A    between atoms: _179  and  _180
REMARK   74  A    between atoms: _179  and  _182
REMARK   75  A    between atoms: _182  and  _183
REMARK   76  A    between atoms: _183  and  _184
REMARK   77  A    between atoms: _184  and  _185
REMARK   78  A    between atoms: _185  and  _186
REMARK   79  A    between atoms: _190  and  _192
REMARK   80  A    between atoms: _192  and  _193
REMARK   81  A    between atoms: _192  and  _195
REMARK   82  A    between atoms: _195  and  _196
REMARK   83  A    between atoms: _201  and  _203
REMARK   84  A    between atoms: _203  and  _204
REMARK   85  A    between atoms: _203  and  _206
REMARK   86  A    between atoms: _206  and  _207
REMARK   87  A    between atoms: _210  and  _212
REMARK   88  A    between atoms: _212  and  _213
REMARK   89  A    between atoms: _212  and  _215
REMARK   90  A    between atoms: _215  and  _216
REMARK   91  A    between atoms: _219  and  _221
REMARK   92  A    between atoms: _221  and  _222
REMARK   93  A    between atoms: _221  and  _224
REMARK   94  A    between atoms: _224  and  _225
REMARK   95  A    between atoms: _228  and  _230
REMARK   96  A    between atoms: _230  and  _231
REMARK   97  A    between atoms: _230  and  _233
REMARK   98  A    between atoms: _235  and  _237
REMARK   99  A    between atoms: _237  and  _238
REMARK  100  A    between atoms: _237  and  _240
REMARK  101  A    between atoms: _240  and  _241
REMARK  102  A    between atoms: _241  and  _242
REMARK  103  A    between atoms: _242  and  _243
REMARK  104  A    between atoms: _252  and  _254
REMARK  105  A    between atoms: _254  and  _255
REMARK  106  A    between atoms: _254  and  _257
REMARK  107  A    between atoms: _257  and  _258
REMARK  108  A    between atoms: _258  and  _259
REMARK  109  A    between atoms: _259  and  _260
REMARK  110  A    between atoms: _260  and  _261
REMARK  111  A    between atoms: _265  and  _267
REMARK  112  A    between atoms: _267  and  _268
REMARK  113  A    between atoms: _267  and  _270
REMARK  114  A    between atoms: _270  and  _271
REMARK  115  A    between atoms: _274  and  _276
REMARK  116  A    between atoms: _276  and  _277
REMARK  117  A    between atoms: _280  and  _282
REMARK  118  A    between atoms: _282  and  _283
REMARK  119  A    between atoms: _282  and  _285
REMARK  120  A    between atoms: _288  and  _290
REMARK  121  A    between atoms: _290  and  _291
REMARK  122  A    between atoms: _290  and  _293
REMARK  123  A    between atoms: _293  and  _294
REMARK  124  A    between atoms: _299  and  _301
REMARK  125  A    between atoms: _301  and  _302
REMARK  126  A    between atoms: _301  and  _304
REMARK  127  A    between atoms: _304  and  _305
REMARK  128  A    between atoms: _311  and  _313
REMARK  129  A    between atoms: _313  and  _314
REMARK  130  A    between atoms: _313  and  _316
REMARK  131  A    between atoms: _316  and  _317
REMARK  132  A    between atoms: _320  and  _322
REMARK  133  A    between atoms: _322  and  _323
REMARK  134  A    between atoms: _326  and  _328
REMARK  135  A    between atoms: _328  and  _329
REMARK  136  A    between atoms: _328  and  _331
REMARK  137  A    between atoms: _331  and  _332
REMARK  138  A    between atoms: _334  and  _336
REMARK  139  A    between atoms: _336  and  _337
REMARK  140  A    between atoms: _336  and  _339
REMARK                            x       y       z     vdW  Elec       q    Type
REMARK                         _______ _______ _______ _____ _____    ______ ____
ROOT
ATOM      1  O   HOH     1      41.198  -1.403   9.703  0.00  0.00    +0.000 OA
ENDROOT
TORSDOF 0
REMARK  Name = ../refined-set-2016/4g90/4g90_pocket.pdb
REMARK  140 active torsions:
REMARK  status: ('A' for Active; 'I' for Inactive)
REMARK    1  A    between atoms: _1  and  _3
REMARK    2  A    between atoms: _3  and  _4
REMARK    3  A    between atoms: _3  and  _6
REMARK    4  A    between atoms: _6  and  _7
REMARK    5  A    between atoms: _7  and  _8
REMARK    6  A    between atoms: _11  and  _13
REMARK    7  A    between atoms: _13  and  _14
REMARK    8  A    between atoms: _17  and  _19
REMARK    9  A    between atoms: _19  and  _20
REMARK   10  A    between atoms: _19  and  _22
REMARK   11  A    between atoms: _22  and  _23
REMARK   12  A    between atoms: _23  and  _24
REMARK   13  A    between atoms: _24  and  _25
REMARK   14  A    between atoms: _25  and  _26
REMARK   15  A    between atoms: _30  and  _32
REMARK   16  A    between atoms: _32  and  _33
REMARK   17  A    between atoms: _32  and  _35
REMARK   18  A    between atoms: _35  and  _36
REMARK   19  A    between atoms: _42  and  _44
REMARK   20  A    between atoms: _44  and  _45
REMARK   21  A    between atoms: _44  and  _47
REMARK   22  A    between atoms: _47  and  _48
REMARK   23  A    between atoms: _48  and  _49
REMARK   24  A    between atoms: _49  and  _50
REMARK   25  A    between atoms: _59  and  _61
REMARK   26  A    between atoms: _61  and  _62
REMARK   27  A    between atoms: _61  and  _64
REMARK   28  A    between atoms: _64  and  _65
REMARK   29  A    between atoms: _65  and  _66
REMARK   30  A    between atoms: _71  and  _73
REMARK   31  A    between atoms: _73  and  _74
REMARK   32  A    between atoms: _73  and  _76
REMARK   33  A    between atoms: _76  and  _77
REMARK   34  A    between atoms: _82  and  _84
REMARK   35  A    between atoms: _84  and  _85
REMARK   36  A    between atoms: _84  and  _87
REMARK   37  A    between atoms: _87  and  _88
REMARK   38  A    between atoms: _88  and  _89
REMARK   39  A    between atoms: _91  and  _93
REMARK   40  A    between atoms: _93  and  _94
REMARK   41  A    between atoms: _93  and  _96
REMARK   42  A    between atoms: _96  and  _97
REMARK   43  A    between atoms: _100  and  _102
REMARK   44  A    between atoms: _102  and  _103
REMARK   45  A    between atoms: _102  and  _105
REMARK   46  A    between atoms: _105  and  _106
REMARK   47  A    between atoms: _106  and  _107
REMARK   48  A    between atoms: _107  and  _108
REMARK   49  A    between atoms: _117  and  _119
REMARK   50  A    between atoms: _119  and  _120
REMARK   51  A    between atoms: _119  and  _122
REMARK   52  A    between atoms: _122  and  _123
REMARK   53  A    between atoms: _123  and  _124
REMARK   54  A    between atoms: _124  and  _125
REMARK   55  A    between atoms: _125  and  _126
REMARK   56  A    between atoms: _131  and  _132
REMARK   57  A    between atoms: _137  and  _139
REMARK   58  A    between atoms: _139  and  _140
REMARK   59  A    between atoms: _139  and  _142
REMARK   60  A    between atoms: _145  and  _147
REMARK   61  A    between atoms: _147  and  _148
REMARK   62  A    between atoms: _147  and  _150
REMARK   63  A    between atoms: _150  and  _151
REMARK   64  A    between atoms: _156  and  _158
REMARK   65  A    between atoms: _158  and  _159
REMARK   66  A    between atoms: _158  and  _161
REMARK   67  A    between atoms: _161  and  _162
REMARK   68  A    between atoms: _165  and  _167
REMARK   69  A    between atoms: _167  and  _168
REMARK   70  A    between atoms: _167  and  _170
REMARK   71  A    between atoms: _170  and  _171
REMARK   72  A    between atoms: _177  and  _179
REMARK   73  A    between atoms: _179  and  _180
REMARK   74  A    between atoms: _179  and  _182
REMARK   75  A    between atoms: _182  and  _183
REMARK   76  A    between atoms: _183  and  _184
REMARK   77  A    between atoms: _184  and  _185
REMARK   78  A    between atoms: _185  and  _186
REMARK   79  A    between atoms: _190  and  _192
REMARK   80  A    between atoms: _192  and  _193
REMARK   81  A    between atoms: _192  and  _195
REMARK   82  A    between atoms: _195  and  _196
REMARK   83  A    between atoms: _201  and  _203
REMARK   84  A    between atoms: _203  and  _204
REMARK   85  A    between atoms: _203  and  _206
REMARK   86  A    between atoms: _206  and  _207
REMARK   87  A    between atoms: _210  and  _212
REMARK   88  A    between atoms: _212  and  _213
REMARK   89  A    between atoms: _212  and  _215
REMARK   90  A    between atoms: _215  and  _216
REMARK   91  A    between atoms: _219  and  _221
REMARK   92  A    between atoms: _221  and  _222
REMARK   93  A    between atoms: _221  and  _224
REMARK   94  A    between atoms: _224  and  _225
REMARK   95  A    between atoms: _228  and  _230
REMARK   96  A    between atoms: _230  and  _231
REMARK   97  A    between atoms: _230  and  _233
REMARK   98  A    between atoms: _235  and  _237
REMARK   99  A    between atoms: _237  and  _238
REMARK  100  A    between atoms: _237  and  _240
REMARK  101  A    between atoms: _240  and  _241
REMARK  102  A    between atoms: _241  and  _242
REMARK  103  A    between atoms: _242  and  _243
REMARK  104  A    between atoms: _252  and  _254
REMARK  105  A    between atoms: _254  and  _255
REMARK  106  A    between atoms: _254  and  _257
REMARK  107  A    between atoms: _257  and  _258
REMARK  108  A    between atoms: _258  and  _259
REMARK  109  A    between atoms: _259  and  _260
REMARK  110  A    between atoms: _260  and  _261
REMARK  111  A    between atoms: _265  and  _267
REMARK  112  A    between atoms: _267  and  _268
REMARK  113  A    between atoms: _267  and  _270
REMARK  114  A    between atoms: _270  and  _271
REMARK  115  A    between atoms: _274  and  _276
REMARK  116  A    between atoms: _276  and  _277
REMARK  117  A    between atoms: _280  and  _282
REMARK  118  A    between atoms: _282  and  _283
REMARK  119  A    between atoms: _282  and  _285
REMARK  120  A    between atoms: _288  and  _290
REMARK  121  A    between atoms: _290  and  _291
REMARK  122  A    between atoms: _290  and  _293
REMARK  123  A    between atoms: _293  and  _294
REMARK  124  A    between atoms: _299  and  _301
REMARK  125  A    between atoms: _301  and  _302
REMARK  126  A    between atoms: _301  and  _304
REMARK  127  A    between atoms: _304  and  _305
REMARK  128  A    between atoms: _311  and  _313
REMARK  129  A    between atoms: _313  and  _314
REMARK  130  A    between atoms: _313  and  _316
REMARK  131  A    between atoms: _316  and  _317
REMARK  132  A    between atoms: _320  and  _322
REMARK  133  A    between atoms: _322  and  _323
REMARK  134  A    between atoms: _326  and  _328
REMARK  135  A    between atoms: _328  and  _329
REMARK  136  A    between atoms: _328  and  _331
REMARK  137  A    between atoms: _331  and  _332
REMARK  138  A    between atoms: _334  and  _336
REMARK  139  A    between atoms: _336  and  _337
REMARK  140  A    between atoms: _336  and  _339
REMARK                            x       y       z     vdW  Elec       q    Type
REMARK                         _______ _______ _______ _____ _____    ______ ____
ROOT
ATOM      1  O   HOH     1      34.839   6.021  22.380  0.00  0.00    +0.000 OA
ENDROOT
TORSDOF 0
REMARK  Name = ../refined-set-2016/4g90/4g90_pocket.pdb
REMARK  140 active torsions:
REMARK  status: ('A' for Active; 'I' for Inactive)
REMARK    1  A    between atoms: _1  and  _3
REMARK    2  A    between atoms: _3  and  _4
REMARK    3  A    between atoms: _3  and  _6
REMARK    4  A    between atoms: _6  and  _7
REMARK    5  A    between atoms: _7  and  _8
REMARK    6  A    between atoms: _11  and  _13
REMARK    7  A    between atoms: _13  and  _14
REMARK    8  A    between atoms: _17  and  _19
REMARK    9  A    between atoms: _19  and  _20
REMARK   10  A    between atoms: _19  and  _22
REMARK   11  A    between atoms: _22  and  _23
REMARK   12  A    between atoms: _23  and  _24
REMARK   13  A    between atoms: _24  and  _25
REMARK   14  A    between atoms: _25  and  _26
REMARK   15  A    between atoms: _30  and  _32
REMARK   16  A    between atoms: _32  and  _33
REMARK   17  A    between atoms: _32  and  _35
REMARK   18  A    between atoms: _35  and  _36
REMARK   19  A    between atoms: _42  and  _44
REMARK   20  A    between atoms: _44  and  _45
REMARK   21  A    between atoms: _44  and  _47
REMARK   22  A    between atoms: _47  and  _48
REMARK   23  A    between atoms: _48  and  _49
REMARK   24  A    between atoms: _49  and  _50
REMARK   25  A    between atoms: _59  and  _61
REMARK   26  A    between atoms: _61  and  _62
REMARK   27  A    between atoms: _61  and  _64
REMARK   28  A    between atoms: _64  and  _65
REMARK   29  A    between atoms: _65  and  _66
REMARK   30  A    between atoms: _71  and  _73
REMARK   31  A    between atoms: _73  and  _74
REMARK   32  A    between atoms: _73  and  _76
REMARK   33  A    between atoms: _76  and  _77
REMARK   34  A    between atoms: _82  and  _84
REMARK   35  A    between atoms: _84  and  _85
REMARK   36  A    between atoms: _84  and  _87
REMARK   37  A    between atoms: _87  and  _88
REMARK   38  A    between atoms: _88  and  _89
REMARK   39  A    between atoms: _91  and  _93
REMARK   40  A    between atoms: _93  and  _94
REMARK   41  A    between atoms: _93  and  _96
REMARK   42  A    between atoms: _96  and  _97
REMARK   43  A    between atoms: _100  and  _102
REMARK   44  A    between atoms: _102  and  _103
REMARK   45  A    between atoms: _102  and  _105
REMARK   46  A    between atoms: _105  and  _106
REMARK   47  A    between atoms: _106  and  _107
REMARK   48  A    between atoms: _107  and  _108
REMARK   49  A    between atoms: _117  and  _119
REMARK   50  A    between atoms: _119  and  _120
REMARK   51  A    between atoms: _119  and  _122
REMARK   52  A    between atoms: _122  and  _123
REMARK   53  A    between atoms: _123  and  _124
REMARK   54  A    between atoms: _124  and  _125
REMARK   55  A    between atoms: _125  and  _126
REMARK   56  A    between atoms: _131  and  _132
REMARK   57  A    between atoms: _137  and  _139
REMARK   58  A    between atoms: _139  and  _140
REMARK   59  A    between atoms: _139  and  _142
REMARK   60  A    between atoms: _145  and  _147
REMARK   61  A    between atoms: _147  and  _148
REMARK   62  A    between atoms: _147  and  _150
REMARK   63  A    between atoms: _150  and  _151
REMARK   64  A    between atoms: _156  and  _158
REMARK   65  A    between atoms: _158  and  _159
REMARK   66  A    between atoms: _158  and  _161
REMARK   67  A    between atoms: _161  and  _162
REMARK   68  A    between atoms: _165  and  _167
REMARK   69  A    between atoms: _167  and  _168
REMARK   70  A    between atoms: _167  and  _170
REMARK   71  A    between atoms: _170  and  _171
REMARK   72  A    between atoms: _177  and  _179
REMARK   73  A    between atoms: _179  and  _180
REMARK   74  A    between atoms: _179  and  _182
REMARK   75  A    between atoms: _182  and  _183
REMARK   76  A    between atoms: _183  and  _184
REMARK   77  A    between atoms: _184  and  _185
REMARK   78  A    between atoms: _185  and  _186
REMARK   79  A    between atoms: _190  and  _192
REMARK   80  A    between atoms: _192  and  _193
REMARK   81  A    between atoms: _192  and  _195
REMARK   82  A    between atoms: _195  and  _196
REMARK   83  A    between atoms: _201  and  _203
REMARK   84  A    between atoms: _203  and  _204
REMARK   85  A    between atoms: _203  and  _206
REMARK   86  A    between atoms: _206  and  _207
REMARK   87  A    between atoms: _210  and  _212
REMARK   88  A    between atoms: _212  and  _213
REMARK   89  A    between atoms: _212  and  _215
REMARK   90  A    between atoms: _215  and  _216
REMARK   91  A    between atoms: _219  and  _221
REMARK   92  A    between atoms: _221  and  _222
REMARK   93  A    between atoms: _221  and  _224
REMARK   94  A    between atoms: _224  and  _225
REMARK   95  A    between atoms: _228  and  _230
REMARK   96  A    between atoms: _230  and  _231
REMARK   97  A    between atoms: _230  and  _233
REMARK   98  A    between atoms: _235  and  _237
REMARK   99  A    between atoms: _237  and  _238
REMARK  100  A    between atoms: _237  and  _240
REMARK  101  A    between atoms: _240  and  _241
REMARK  102  A    between atoms: _241  and  _242
REMARK  103  A    between atoms: _242  and  _243
REMARK  104  A    between atoms: _252  and  _254
REMARK  105  A    between atoms: _254  and  _255
REMARK  106  A    between atoms: _254  and  _257
REMARK  107  A    between atoms: _257  and  _258
REMARK  108  A    between atoms: _258  and  _259
REMARK  109  A    between atoms: _259  and  _260
REMARK  110  A    between atoms: _260  and  _261
REMARK  111  A    between atoms: _265  and  _267
REMARK  112  A    between atoms: _267  and  _268
REMARK  113  A    between atoms: _267  and  _270
REMARK  114  A    between atoms: _270  and  _271
REMARK  115  A    between atoms: _274  and  _276
REMARK  116  A    between atoms: _276  and  _277
REMARK  117  A    between atoms: _280  and  _282
REMARK  118  A    between atoms: _282  and  _283
REMARK  119  A    between atoms: _282  and  _285
REMARK  120  A    between atoms: _288  and  _290
REMARK  121  A    between atoms: _290  and  _291
REMARK  122  A    between atoms: _290  and  _293
REMARK  123  A    between atoms: _293  and  _294
REMARK  124  A    between atoms: _299  and  _301
REMARK  125  A    between atoms: _301  and  _302
REMARK  126  A    between atoms: _301  and  _304
REMARK  127  A    between atoms: _304  and  _305
REMARK  128  A    between atoms: _311  and  _313
REMARK  129  A    between atoms: _313  and  _314
REMARK  130  A    between atoms: _313  and  _316
REMARK  131  A    between atoms: _316  and  _317
REMARK  132  A    between atoms: _320  and  _322
REMARK  133  A    between atoms: _322  and  _323
REMARK  134  A    between atoms: _326  and  _328
REMARK  135  A    between atoms: _328  and  _329
REMARK  136  A    between atoms: _328  and  _331
REMARK  137  A    between atoms: _331  and  _332
REMARK  138  A    between atoms: _334  and  _336
REMARK  139  A    between atoms: _336  and  _337
REMARK  140  A    between atoms: _336  and  _339
REMARK                            x       y       z     vdW  Elec       q    Type
REMARK                         _______ _______ _______ _____ _____    ______ ____
ROOT
ATOM      1  O   HOH     1      35.709   3.602  23.396  0.00  0.00    +0.000 OA
ENDROOT
TORSDOF 0
REMARK  Name = ../refined-set-2016/4g90/4g90_pocket.pdb
REMARK  140 active torsions:
REMARK  status: ('A' for Active; 'I' for Inactive)
REMARK    1  A    between atoms: _1  and  _3
REMARK    2  A    between atoms: _3  and  _4
REMARK    3  A    between atoms: _3  and  _6
REMARK    4  A    between atoms: _6  and  _7
REMARK    5  A    between atoms: _7  and  _8
REMARK    6  A    between atoms: _11  and  _13
REMARK    7  A    between atoms: _13  and  _14
REMARK    8  A    between atoms: _17  and  _19
REMARK    9  A    between atoms: _19  and  _20
REMARK   10  A    between atoms: _19  and  _22
REMARK   11  A    between atoms: _22  and  _23
REMARK   12  A    between atoms: _23  and  _24
REMARK   13  A    between atoms: _24  and  _25
REMARK   14  A    between atoms: _25  and  _26
REMARK   15  A    between atoms: _30  and  _32
REMARK   16  A    between atoms: _32  and  _33
REMARK   17  A    between atoms: _32  and  _35
REMARK   18  A    between atoms: _35  and  _36
REMARK   19  A    between atoms: _42  and  _44
REMARK   20  A    between atoms: _44  and  _45
REMARK   21  A    between atoms: _44  and  _47
REMARK   22  A    between atoms: _47  and  _48
REMARK   23  A    between atoms: _48  and  _49
REMARK   24  A    between atoms: _49  and  _50
REMARK   25  A    between atoms: _59  and  _61
REMARK   26  A    between atoms: _61  and  _62
REMARK   27  A    between atoms: _61  and  _64
REMARK   28  A    between atoms: _64  and  _65
REMARK   29  A    between atoms: _65  and  _66
REMARK   30  A    between atoms: _71  and  _73
REMARK   31  A    between atoms: _73  and  _74
REMARK   32  A    between atoms: _73  and  _76
REMARK   33  A    between atoms: _76  and  _77
REMARK   34  A    between atoms: _82  and  _84
REMARK   35  A    between atoms: _84  and  _85
REMARK   36  A    between atoms: _84  and  _87
REMARK   37  A    between atoms: _87  and  _88
REMARK   38  A    between atoms: _88  and  _89
REMARK   39  A    between atoms: _91  and  _93
REMARK   40  A    between atoms: _93  and  _94
REMARK   41  A    between atoms: _93  and  _96
REMARK   42  A    between atoms: _96  and  _97
REMARK   43  A    between atoms: _100  and  _102
REMARK   44  A    between atoms: _102  and  _103
REMARK   45  A    between atoms: _102  and  _105
REMARK   46  A    between atoms: _105  and  _106
REMARK   47  A    between atoms: _106  and  _107
REMARK   48  A    between atoms: _107  and  _108
REMARK   49  A    between atoms: _117  and  _119
REMARK   50  A    between atoms: _119  and  _120
REMARK   51  A    between atoms: _119  and  _122
REMARK   52  A    between atoms: _122  and  _123
REMARK   53  A    between atoms: _123  and  _124
REMARK   54  A    between atoms: _124  and  _125
REMARK   55  A    between atoms: _125  and  _126
REMARK   56  A    between atoms: _131  and  _132
REMARK   57  A    between atoms: _137  and  _139
REMARK   58  A    between atoms: _139  and  _140
REMARK   59  A    between atoms: _139  and  _142
REMARK   60  A    between atoms: _145  and  _147
REMARK   61  A    between atoms: _147  and  _148
REMARK   62  A    between atoms: _147  and  _150
REMARK   63  A    between atoms: _150  and  _151
REMARK   64  A    between atoms: _156  and  _158
REMARK   65  A    between atoms: _158  and  _159
REMARK   66  A    between atoms: _158  and  _161
REMARK   67  A    between atoms: _161  and  _162
REMARK   68  A    between atoms: _165  and  _167
REMARK   69  A    between atoms: _167  and  _168
REMARK   70  A    between atoms: _167  and  _170
REMARK   71  A    between atoms: _170  and  _171
REMARK   72  A    between atoms: _177  and  _179
REMARK   73  A    between atoms: _179  and  _180
REMARK   74  A    between atoms: _179  and  _182
REMARK   75  A    between atoms: _182  and  _183
REMARK   76  A    between atoms: _183  and  _184
REMARK   77  A    between atoms: _184  and  _185
REMARK   78  A    between atoms: _185  and  _186
REMARK   79  A    between atoms: _190  and  _192
REMARK   80  A    between atoms: _192  and  _193
REMARK   81  A    between atoms: _192  and  _195
REMARK   82  A    between atoms: _195  and  _196
REMARK   83  A    between atoms: _201  and  _203
REMARK   84  A    between atoms: _203  and  _204
REMARK   85  A    between atoms: _203  and  _206
REMARK   86  A    between atoms: _206  and  _207
REMARK   87  A    between atoms: _210  and  _212
REMARK   88  A    between atoms: _212  and  _213
REMARK   89  A    between atoms: _212  and  _215
REMARK   90  A    between atoms: _215  and  _216
REMARK   91  A    between atoms: _219  and  _221
REMARK   92  A    between atoms: _221  and  _222
REMARK   93  A    between atoms: _221  and  _224
REMARK   94  A    between atoms: _224  and  _225
REMARK   95  A    between atoms: _228  and  _230
REMARK   96  A    between atoms: _230  and  _231
REMARK   97  A    between atoms: _230  and  _233
REMARK   98  A    between atoms: _235  and  _237
REMARK   99  A    between atoms: _237  and  _238
REMARK  100  A    between atoms: _237  and  _240
REMARK  101  A    between atoms: _240  and  _241
REMARK  102  A    between atoms: _241  and  _242
REMARK  103  A    between atoms: _242  and  _243
REMARK  104  A    between atoms: _252  and  _254
REMARK  105  A    between atoms: _254  and  _255
REMARK  106  A    between atoms: _254  and  _257
REMARK  107  A    between atoms: _257  and  _258
REMARK  108  A    between atoms: _258  and  _259
REMARK  109  A    between atoms: _259  and  _260
REMARK  110  A    between atoms: _260  and  _261
REMARK  111  A    between atoms: _265  and  _267
REMARK  112  A    between atoms: _267  and  _268
REMARK  113  A    between atoms: _267  and  _270
REMARK  114  A    between atoms: _270  and  _271
REMARK  115  A    between atoms: _274  and  _276
REMARK  116  A    between atoms: _276  and  _277
REMARK  117  A    between atoms: _280  and  _282
REMARK  118  A    between atoms: _282  and  _283
REMARK  119  A    between atoms: _282  and  _285
REMARK  120  A    between atoms: _288  and  _290
REMARK  121  A    between atoms: _290  and  _291
REMARK  122  A    between atoms: _290  and  _293
REMARK  123  A    between atoms: _293  and  _294
REMARK  124  A    between atoms: _299  and  _301
REMARK  125  A    between atoms: _301  and  _302
REMARK  126  A    between atoms: _301  and  _304
REMARK  127  A    between atoms: _304  and  _305
REMARK  128  A    between atoms: _311  and  _313
REMARK  129  A    between atoms: _313  and  _314
REMARK  130  A    between atoms: _313  and  _316
REMARK  131  A    between atoms: _316  and  _317
REMARK  132  A    between atoms: _320  and  _322
REMARK  133  A    between atoms: _322  and  _323
REMARK  134  A    between atoms: _326  and  _328
REMARK  135  A    between atoms: _328  and  _329
REMARK  136  A    between atoms: _328  and  _331
REMARK  137  A    between atoms: _331  and  _332
REMARK  138  A    between atoms: _334  and  _336
REMARK  139  A    between atoms: _336  and  _337
REMARK  140  A    between atoms: _336  and  _339
REMARK                            x       y       z     vdW  Elec       q    Type
REMARK                         _______ _______ _______ _____ _____    ______ ____
ROOT
ATOM      1  O   HOH     1      34.086  -7.789  14.413  0.00  0.00    +0.000 OA
ENDROOT
TORSDOF 0
REMARK  Name = ../refined-set-2016/4g90/4g90_pocket.pdb
REMARK  140 active torsions:
REMARK  status: ('A' for Active; 'I' for Inactive)
REMARK    1  A    between atoms: _1  and  _3
REMARK    2  A    between atoms: _3  and  _4
REMARK    3  A    between atoms: _3  and  _6
REMARK    4  A    between atoms: _6  and  _7
REMARK    5  A    between atoms: _7  and  _8
REMARK    6  A    between atoms: _11  and  _13
REMARK    7  A    between atoms: _13  and  _14
REMARK    8  A    between atoms: _17  and  _19
REMARK    9  A    between atoms: _19  and  _20
REMARK   10  A    between atoms: _19  and  _22
REMARK   11  A    between atoms: _22  and  _23
REMARK   12  A    between atoms: _23  and  _24
REMARK   13  A    between atoms: _24  and  _25
REMARK   14  A    between atoms: _25  and  _26
REMARK   15  A    between atoms: _30  and  _32
REMARK   16  A    between atoms: _32  and  _33
REMARK   17  A    between atoms: _32  and  _35
REMARK   18  A    between atoms: _35  and  _36
REMARK   19  A    between atoms: _42  and  _44
REMARK   20  A    between atoms: _44  and  _45
REMARK   21  A    between atoms: _44  and  _47
REMARK   22  A    between atoms: _47  and  _48
REMARK   23  A    between atoms: _48  and  _49
REMARK   24  A    between atoms: _49  and  _50
REMARK   25  A    between atoms: _59  and  _61
REMARK   26  A    between atoms: _61  and  _62
REMARK   27  A    between atoms: _61  and  _64
REMARK   28  A    between atoms: _64  and  _65
REMARK   29  A    between atoms: _65  and  _66
REMARK   30  A    between atoms: _71  and  _73
REMARK   31  A    between atoms: _73  and  _74
REMARK   32  A    between atoms: _73  and  _76
REMARK   33  A    between atoms: _76  and  _77
REMARK   34  A    between atoms: _82  and  _84
REMARK   35  A    between atoms: _84  and  _85
REMARK   36  A    between atoms: _84  and  _87
REMARK   37  A    between atoms: _87  and  _88
REMARK   38  A    between atoms: _88  and  _89
REMARK   39  A    between atoms: _91  and  _93
REMARK   40  A    between atoms: _93  and  _94
REMARK   41  A    between atoms: _93  and  _96
REMARK   42  A    between atoms: _96  and  _97
REMARK   43  A    between atoms: _100  and  _102
REMARK   44  A    between atoms: _102  and  _103
REMARK   45  A    between atoms: _102  and  _105
REMARK   46  A    between atoms: _105  and  _106
REMARK   47  A    between atoms: _106  and  _107
REMARK   48  A    between atoms: _107  and  _108
REMARK   49  A    between atoms: _117  and  _119
REMARK   50  A    between atoms: _119  and  _120
REMARK   51  A    between atoms: _119  and  _122
REMARK   52  A    between atoms: _122  and  _123
REMARK   53  A    between atoms: _123  and  _124
REMARK   54  A    between atoms: _124  and  _125
REMARK   55  A    between atoms: _125  and  _126
REMARK   56  A    between atoms: _131  and  _132
REMARK   57  A    between atoms: _137  and  _139
REMARK   58  A    between atoms: _139  and  _140
REMARK   59  A    between atoms: _139  and  _142
REMARK   60  A    between atoms: _145  and  _147
REMARK   61  A    between atoms: _147  and  _148
REMARK   62  A    between atoms: _147  and  _150
REMARK   63  A    between atoms: _150  and  _151
REMARK   64  A    between atoms: _156  and  _158
REMARK   65  A    between atoms: _158  and  _159
REMARK   66  A    between atoms: _158  and  _161
REMARK   67  A    between atoms: _161  and  _162
REMARK   68  A    between atoms: _165  and  _167
REMARK   69  A    between atoms: _167  and  _168
REMARK   70  A    between atoms: _167  and  _170
REMARK   71  A    between atoms: _170  and  _171
REMARK   72  A    between atoms: _177  and  _179
REMARK   73  A    between atoms: _179  and  _180
REMARK   74  A    between atoms: _179  and  _182
REMARK   75  A    between atoms: _182  and  _183
REMARK   76  A    between atoms: _183  and  _184
REMARK   77  A    between atoms: _184  and  _185
REMARK   78  A    between atoms: _185  and  _186
REMARK   79  A    between atoms: _190  and  _192
REMARK   80  A    between atoms: _192  and  _193
REMARK   81  A    between atoms: _192  and  _195
REMARK   82  A    between atoms: _195  and  _196
REMARK   83  A    between atoms: _201  and  _203
REMARK   84  A    between atoms: _203  and  _204
REMARK   85  A    between atoms: _203  and  _206
REMARK   86  A    between atoms: _206  and  _207
REMARK   87  A    between atoms: _210  and  _212
REMARK   88  A    between atoms: _212  and  _213
REMARK   89  A    between atoms: _212  and  _215
REMARK   90  A    between atoms: _215  and  _216
REMARK   91  A    between atoms: _219  and  _221
REMARK   92  A    between atoms: _221  and  _222
REMARK   93  A    between atoms: _221  and  _224
REMARK   94  A    between atoms: _224  and  _225
REMARK   95  A    between atoms: _228  and  _230
REMARK   96  A    between atoms: _230  and  _231
REMARK   97  A    between atoms: _230  and  _233
REMARK   98  A    between atoms: _235  and  _237
REMARK   99  A    between atoms: _237  and  _238
REMARK  100  A    between atoms: _237  and  _240
REMARK  101  A    between atoms: _240  and  _241
REMARK  102  A    between atoms: _241  and  _242
REMARK  103  A    between atoms: _242  and  _243
REMARK  104  A    between atoms: _252  and  _254
REMARK  105  A    between atoms: _254  and  _255
REMARK  106  A    between atoms: _254  and  _257
REMARK  107  A    between atoms: _257  and  _258
REMARK  108  A    between atoms: _258  and  _259
REMARK  109  A    between atoms: _259  and  _260
REMARK  110  A    between atoms: _260  and  _261
REMARK  111  A    between atoms: _265  and  _267
REMARK  112  A    between atoms: _267  and  _268
REMARK  113  A    between atoms: _267  and  _270
REMARK  114  A    between atoms: _270  and  _271
REMARK  115  A    between atoms: _274  and  _276
REMARK  116  A    between atoms: _276  and  _277
REMARK  117  A    between atoms: _280  and  _282
REMARK  118  A    between atoms: _282  and  _283
REMARK  119  A    between atoms: _282  and  _285
REMARK  120  A    between atoms: _288  and  _290
REMARK  121  A    between atoms: _290  and  _291
REMARK  122  A    between atoms: _290  and  _293
REMARK  123  A    between atoms: _293  and  _294
REMARK  124  A    between atoms: _299  and  _301
REMARK  125  A    between atoms: _301  and  _302
REMARK  126  A    between atoms: _301  and  _304
REMARK  127  A    between atoms: _304  and  _305
REMARK  128  A    between atoms: _311  and  _313
REMARK  129  A    between atoms: _313  and  _314
REMARK  130  A    between atoms: _313  and  _316
REMARK  131  A    between atoms: _316  and  _317
REMARK  132  A    between atoms: _320  and  _322
REMARK  133  A    between atoms: _322  and  _323
REMARK  134  A    between atoms: _326  and  _328
REMARK  135  A    between atoms: _328  and  _329
REMARK  136  A    between atoms: _328  and  _331
REMARK  137  A    between atoms: _331  and  _332
REMARK  138  A    between atoms: _334  and  _336
REMARK  139  A    between atoms: _336  and  _337
REMARK  140  A    between atoms: _336  and  _339
REMARK                            x       y       z     vdW  Elec       q    Type
REMARK                         _______ _______ _______ _____ _____    ______ ____
ROOT
ATOM      1  O   HOH     1      33.346 -10.069  16.905  0.00  0.00    +0.000 OA
ENDROOT
TORSDOF 0
REMARK  Name = ../refined-set-2016/4g90/4g90_pocket.pdb
REMARK  140 active torsions:
REMARK  status: ('A' for Active; 'I' for Inactive)
REMARK    1  A    between atoms: _1  and  _3
REMARK    2  A    between atoms: _3  and  _4
REMARK    3  A    between atoms: _3  and  _6
REMARK    4  A    between atoms: _6  and  _7
REMARK    5  A    between atoms: _7  and  _8
REMARK    6  A    between atoms: _11  and  _13
REMARK    7  A    between atoms: _13  and  _14
REMARK    8  A    between atoms: _17  and  _19
REMARK    9  A    between atoms: _19  and  _20
REMARK   10  A    between atoms: _19  and  _22
REMARK   11  A    between atoms: _22  and  _23
REMARK   12  A    between atoms: _23  and  _24
REMARK   13  A    between atoms: _24  and  _25
REMARK   14  A    between atoms: _25  and  _26
REMARK   15  A    between atoms: _30  and  _32
REMARK   16  A    between atoms: _32  and  _33
REMARK   17  A    between atoms: _32  and  _35
REMARK   18  A    between atoms: _35  and  _36
REMARK   19  A    between atoms: _42  and  _44
REMARK   20  A    between atoms: _44  and  _45
REMARK   21  A    between atoms: _44  and  _47
REMARK   22  A    between atoms: _47  and  _48
REMARK   23  A    between atoms: _48  and  _49
REMARK   24  A    between atoms: _49  and  _50
REMARK   25  A    between atoms: _59  and  _61
REMARK   26  A    between atoms: _61  and  _62
REMARK   27  A    between atoms: _61  and  _64
REMARK   28  A    between atoms: _64  and  _65
REMARK   29  A    between atoms: _65  and  _66
REMARK   30  A    between atoms: _71  and  _73
REMARK   31  A    between atoms: _73  and  _74
REMARK   32  A    between atoms: _73  and  _76
REMARK   33  A    between atoms: _76  and  _77
REMARK   34  A    between atoms: _82  and  _84
REMARK   35  A    between atoms: _84  and  _85
REMARK   36  A    between atoms: _84  and  _87
REMARK   37  A    between atoms: _87  and  _88
REMARK   38  A    between atoms: _88  and  _89
REMARK   39  A    between atoms: _91  and  _93
REMARK   40  A    between atoms: _93  and  _94
REMARK   41  A    between atoms: _93  and  _96
REMARK   42  A    between atoms: _96  and  _97
REMARK   43  A    between atoms: _100  and  _102
REMARK   44  A    between atoms: _102  and  _103
REMARK   45  A    between atoms: _102  and  _105
REMARK   46  A    between atoms: _105  and  _106
REMARK   47  A    between atoms: _106  and  _107
REMARK   48  A    between atoms: _107  and  _108
REMARK   49  A    between atoms: _117  and  _119
REMARK   50  A    between atoms: _119  and  _120
REMARK   51  A    between atoms: _119  and  _122
REMARK   52  A    between atoms: _122  and  _123
REMARK   53  A    between atoms: _123  and  _124
REMARK   54  A    between atoms: _124  and  _125
REMARK   55  A    between atoms: _125  and  _126
REMARK   56  A    between atoms: _131  and  _132
REMARK   57  A    between atoms: _137  and  _139
REMARK   58  A    between atoms: _139  and  _140
REMARK   59  A    between atoms: _139  and  _142
REMARK   60  A    between atoms: _145  and  _147
REMARK   61  A    between atoms: _147  and  _148
REMARK   62  A    between atoms: _147  and  _150
REMARK   63  A    between atoms: _150  and  _151
REMARK   64  A    between atoms: _156  and  _158
REMARK   65  A    between atoms: _158  and  _159
REMARK   66  A    between atoms: _158  and  _161
REMARK   67  A    between atoms: _161  and  _162
REMARK   68  A    between atoms: _165  and  _167
REMARK   69  A    between atoms: _167  and  _168
REMARK   70  A    between atoms: _167  and  _170
REMARK   71  A    between atoms: _170  and  _171
REMARK   72  A    between atoms: _177  and  _179
REMARK   73  A    between atoms: _179  and  _180
REMARK   74  A    between atoms: _179  and  _182
REMARK   75  A    between atoms: _182  and  _183
REMARK   76  A    between atoms: _183  and  _184
REMARK   77  A    between atoms: _184  and  _185
REMARK   78  A    between atoms: _185  and  _186
REMARK   79  A    between atoms: _190  and  _192
REMARK   80  A    between atoms: _192  and  _193
REMARK   81  A    between atoms: _192  and  _195
REMARK   82  A    between atoms: _195  and  _196
REMARK   83  A    between atoms: _201  and  _203
REMARK   84  A    between atoms: _203  and  _204
REMARK   85  A    between atoms: _203  and  _206
REMARK   86  A    between atoms: _206  and  _207
REMARK   87  A    between atoms: _210  and  _212
REMARK   88  A    between atoms: _212  and  _213
REMARK   89  A    between atoms: _212  and  _215
REMARK   90  A    between atoms: _215  and  _216
REMARK   91  A    between atoms: _219  and  _221
REMARK   92  A    between atoms: _221  and  _222
REMARK   93  A    between atoms: _221  and  _224
REMARK   94  A    between atoms: _224  and  _225
REMARK   95  A    between atoms: _228  and  _230
REMARK   96  A    between atoms: _230  and  _231
REMARK   97  A    between atoms: _230  and  _233
REMARK   98  A    between atoms: _235  and  _237
REMARK   99  A    between atoms: _237  and  _238
REMARK  100  A    between atoms: _237  and  _240
REMARK  101  A    between atoms: _240  and  _241
REMARK  102  A    between atoms: _241  and  _242
REMARK  103  A    between atoms: _242  and  _243
REMARK  104  A    between atoms: _252  and  _254
REMARK  105  A    between atoms: _254  and  _255
REMARK  106  A    between atoms: _254  and  _257
REMARK  107  A    between atoms: _257  and  _258
REMARK  108  A    between atoms: _258  and  _259
REMARK  109  A    between atoms: _259  and  _260
REMARK  110  A    between atoms: _260  and  _261
REMARK  111  A    between atoms: _265  and  _267
REMARK  112  A    between atoms: _267  and  _268
REMARK  113  A    between atoms: _267  and  _270
REMARK  114  A    between atoms: _270  and  _271
REMARK  115  A    between atoms: _274  and  _276
REMARK  116  A    between atoms: _276  and  _277
REMARK  117  A    between atoms: _280  and  _282
REMARK  118  A    between atoms: _282  and  _283
REMARK  119  A    between atoms: _282  and  _285
REMARK  120  A    between atoms: _288  and  _290
REMARK  121  A    between atoms: _290  and  _291
REMARK  122  A    between atoms: _290  and  _293
REMARK  123  A    between atoms: _293  and  _294
REMARK  124  A    between atoms: _299  and  _301
REMARK  125  A    between atoms: _301  and  _302
REMARK  126  A    between atoms: _301  and  _304
REMARK  127  A    between atoms: _304  and  _305
REMARK  128  A    between atoms: _311  and  _313
REMARK  129  A    between atoms: _313  and  _314
REMARK  130  A    between atoms: _313  and  _316
REMARK  131  A    between atoms: _316  and  _317
REMARK  132  A    between atoms: _320  and  _322
REMARK  133  A    between atoms: _322  and  _323
REMARK  134  A    between atoms: _326  and  _328
REMARK  135  A    between atoms: _328  and  _329
REMARK  136  A    between atoms: _328  and  _331
REMARK  137  A    between atoms: _331  and  _332
REMARK  138  A    between atoms: _334  and  _336
REMARK  139  A    between atoms: _336  and  _337
REMARK  140  A    between atoms: _336  and  _339
REMARK                            x       y       z     vdW  Elec       q    Type
REMARK                         _______ _______ _______ _____ _____    ______ ____
ROOT
ATOM      1  O   HOH     1      39.118   8.221   7.092  0.00  0.00    +0.000 OA
ENDROOT
TORSDOF 0
REMARK  Name = ../refined-set-2016/4g90/4g90_pocket.pdb
REMARK  140 active torsions:
REMARK  status: ('A' for Active; 'I' for Inactive)
REMARK    1  A    between atoms: _1  and  _3
REMARK    2  A    between atoms: _3  and  _4
REMARK    3  A    between atoms: _3  and  _6
REMARK    4  A    between atoms: _6  and  _7
REMARK    5  A    between atoms: _7  and  _8
REMARK    6  A    between atoms: _11  and  _13
REMARK    7  A    between atoms: _13  and  _14
REMARK    8  A    between atoms: _17  and  _19
REMARK    9  A    between atoms: _19  and  _20
REMARK   10  A    between atoms: _19  and  _22
REMARK   11  A    between atoms: _22  and  _23
REMARK   12  A    between atoms: _23  and  _24
REMARK   13  A    between atoms: _24  and  _25
REMARK   14  A    between atoms: _25  and  _26
REMARK   15  A    between atoms: _30  and  _32
REMARK   16  A    between atoms: _32  and  _33
REMARK   17  A    between atoms: _32  and  _35
REMARK   18  A    between atoms: _35  and  _36
REMARK   19  A    between atoms: _42  and  _44
REMARK   20  A    between atoms: _44  and  _45
REMARK   21  A    between atoms: _44  and  _47
REMARK   22  A    between atoms: _47  and  _48
REMARK   23  A    between atoms: _48  and  _49
REMARK   24  A    between atoms: _49  and  _50
REMARK   25  A    between atoms: _59  and  _61
REMARK   26  A    between atoms: _61  and  _62
REMARK   27  A    between atoms: _61  and  _64
REMARK   28  A    between atoms: _64  and  _65
REMARK   29  A    between atoms: _65  and  _66
REMARK   30  A    between atoms: _71  and  _73
REMARK   31  A    between atoms: _73  and  _74
REMARK   32  A    between atoms: _73  and  _76
REMARK   33  A    between atoms: _76  and  _77
REMARK   34  A    between atoms: _82  and  _84
REMARK   35  A    between atoms: _84  and  _85
REMARK   36  A    between atoms: _84  and  _87
REMARK   37  A    between atoms: _87  and  _88
REMARK   38  A    between atoms: _88  and  _89
REMARK   39  A    between atoms: _91  and  _93
REMARK   40  A    between atoms: _93  and  _94
REMARK   41  A    between atoms: _93  and  _96
REMARK   42  A    between atoms: _96  and  _97
REMARK   43  A    between atoms: _100  and  _102
REMARK   44  A    between atoms: _102  and  _103
REMARK   45  A    between atoms: _102  and  _105
REMARK   46  A    between atoms: _105  and  _106
REMARK   47  A    between atoms: _106  and  _107
REMARK   48  A    between atoms: _107  and  _108
REMARK   49  A    between atoms: _117  and  _119
REMARK   50  A    between atoms: _119  and  _120
REMARK   51  A    between atoms: _119  and  _122
REMARK   52  A    between atoms: _122  and  _123
REMARK   53  A    between atoms: _123  and  _124
REMARK   54  A    between atoms: _124  and  _125
REMARK   55  A    between atoms: _125  and  _126
REMARK   56  A    between atoms: _131  and  _132
REMARK   57  A    between atoms: _137  and  _139
REMARK   58  A    between atoms: _139  and  _140
REMARK   59  A    between atoms: _139  and  _142
REMARK   60  A    between atoms: _145  and  _147
REMARK   61  A    between atoms: _147  and  _148
REMARK   62  A    between atoms: _147  and  _150
REMARK   63  A    between atoms: _150  and  _151
REMARK   64  A    between atoms: _156  and  _158
REMARK   65  A    between atoms: _158  and  _159
REMARK   66  A    between atoms: _158  and  _161
REMARK   67  A    between atoms: _161  and  _162
REMARK   68  A    between atoms: _165  and  _167
REMARK   69  A    between atoms: _167  and  _168
REMARK   70  A    between atoms: _167  and  _170
REMARK   71  A    between atoms: _170  and  _171
REMARK   72  A    between atoms: _177  and  _179
REMARK   73  A    between atoms: _179  and  _180
REMARK   74  A    between atoms: _179  and  _182
REMARK   75  A    between atoms: _182  and  _183
REMARK   76  A    between atoms: _183  and  _184
REMARK   77  A    between atoms: _184  and  _185
REMARK   78  A    between atoms: _185  and  _186
REMARK   79  A    between atoms: _190  and  _192
REMARK   80  A    between atoms: _192  and  _193
REMARK   81  A    between atoms: _192  and  _195
REMARK   82  A    between atoms: _195  and  _196
REMARK   83  A    between atoms: _201  and  _203
REMARK   84  A    between atoms: _203  and  _204
REMARK   85  A    between atoms: _203  and  _206
REMARK   86  A    between atoms: _206  and  _207
REMARK   87  A    between atoms: _210  and  _212
REMARK   88  A    between atoms: _212  and  _213
REMARK   89  A    between atoms: _212  and  _215
REMARK   90  A    between atoms: _215  and  _216
REMARK   91  A    between atoms: _219  and  _221
REMARK   92  A    between atoms: _221  and  _222
REMARK   93  A    between atoms: _221  and  _224
REMARK   94  A    between atoms: _224  and  _225
REMARK   95  A    between atoms: _228  and  _230
REMARK   96  A    between atoms: _230  and  _231
REMARK   97  A    between atoms: _230  and  _233
REMARK   98  A    between atoms: _235  and  _237
REMARK   99  A    between atoms: _237  and  _238
REMARK  100  A    between atoms: _237  and  _240
REMARK  101  A    between atoms: _240  and  _241
REMARK  102  A    between atoms: _241  and  _242
REMARK  103  A    between atoms: _242  and  _243
REMARK  104  A    between atoms: _252  and  _254
REMARK  105  A    between atoms: _254  and  _255
REMARK  106  A    between atoms: _254  and  _257
REMARK  107  A    between atoms: _257  and  _258
REMARK  108  A    between atoms: _258  and  _259
REMARK  109  A    between atoms: _259  and  _260
REMARK  110  A    between atoms: _260  and  _261
REMARK  111  A    between atoms: _265  and  _267
REMARK  112  A    between atoms: _267  and  _268
REMARK  113  A    between atoms: _267  and  _270
REMARK  114  A    between atoms: _270  and  _271
REMARK  115  A    between atoms: _274  and  _276
REMARK  116  A    between atoms: _276  and  _277
REMARK  117  A    between atoms: _280  and  _282
REMARK  118  A    between atoms: _282  and  _283
REMARK  119  A    between atoms: _282  and  _285
REMARK  120  A    between atoms: _288  and  _290
REMARK  121  A    between atoms: _290  and  _291
REMARK  122  A    between atoms: _290  and  _293
REMARK  123  A    between atoms: _293  and  _294
REMARK  124  A    between atoms: _299  and  _301
REMARK  125  A    between atoms: _301  and  _302
REMARK  126  A    between atoms: _301  and  _304
REMARK  127  A    between atoms: _304  and  _305
REMARK  128  A    between atoms: _311  and  _313
REMARK  129  A    between atoms: _313  and  _314
REMARK  130  A    between atoms: _313  and  _316
REMARK  131  A    between atoms: _316  and  _317
REMARK  132  A    between atoms: _320  and  _322
REMARK  133  A    between atoms: _322  and  _323
REMARK  134  A    between atoms: _326  and  _328
REMARK  135  A    between atoms: _328  and  _329
REMARK  136  A    between atoms: _328  and  _331
REMARK  137  A    between atoms: _331  and  _332
REMARK  138  A    between atoms: _334  and  _336
REMARK  139  A    between atoms: _336  and  _337
REMARK  140  A    between atoms: _336  and  _339
REMARK                            x       y       z     vdW  Elec       q    Type
REMARK                         _______ _______ _______ _____ _____    ______ ____
ROOT
ATOM      1  O   HOH     1      37.506  -2.378  17.351  0.00  0.00    +0.000 OA
ENDROOT
TORSDOF 0
REMARK  Name = ../refined-set-2016/4g90/4g90_pocket.pdb
REMARK  140 active torsions:
REMARK  status: ('A' for Active; 'I' for Inactive)
REMARK    1  A    between atoms: _1  and  _3
REMARK    2  A    between atoms: _3  and  _4
REMARK    3  A    between atoms: _3  and  _6
REMARK    4  A    between atoms: _6  and  _7
REMARK    5  A    between atoms: _7  and  _8
REMARK    6  A    between atoms: _11  and  _13
REMARK    7  A    between atoms: _13  and  _14
REMARK    8  A    between atoms: _17  and  _19
REMARK    9  A    between atoms: _19  and  _20
REMARK   10  A    between atoms: _19  and  _22
REMARK   11  A    between atoms: _22  and  _23
REMARK   12  A    between atoms: _23  and  _24
REMARK   13  A    between atoms: _24  and  _25
REMARK   14  A    between atoms: _25  and  _26
REMARK   15  A    between atoms: _30  and  _32
REMARK   16  A    between atoms: _32  and  _33
REMARK   17  A    between atoms: _32  and  _35
REMARK   18  A    between atoms: _35  and  _36
REMARK   19  A    between atoms: _42  and  _44
REMARK   20  A    between atoms: _44  and  _45
REMARK   21  A    between atoms: _44  and  _47
REMARK   22  A    between atoms: _47  and  _48
REMARK   23  A    between atoms: _48  and  _49
REMARK   24  A    between atoms: _49  and  _50
REMARK   25  A    between atoms: _59  and  _61
REMARK   26  A    between atoms: _61  and  _62
REMARK   27  A    between atoms: _61  and  _64
REMARK   28  A    between atoms: _64  and  _65
REMARK   29  A    between atoms: _65  and  _66
REMARK   30  A    between atoms: _71  and  _73
REMARK   31  A    between atoms: _73  and  _74
REMARK   32  A    between atoms: _73  and  _76
REMARK   33  A    between atoms: _76  and  _77
REMARK   34  A    between atoms: _82  and  _84
REMARK   35  A    between atoms: _84  and  _85
REMARK   36  A    between atoms: _84  and  _87
REMARK   37  A    between atoms: _87  and  _88
REMARK   38  A    between atoms: _88  and  _89
REMARK   39  A    between atoms: _91  and  _93
REMARK   40  A    between atoms: _93  and  _94
REMARK   41  A    between atoms: _93  and  _96
REMARK   42  A    between atoms: _96  and  _97
REMARK   43  A    between atoms: _100  and  _102
REMARK   44  A    between atoms: _102  and  _103
REMARK   45  A    between atoms: _102  and  _105
REMARK   46  A    between atoms: _105  and  _106
REMARK   47  A    between atoms: _106  and  _107
REMARK   48  A    between atoms: _107  and  _108
REMARK   49  A    between atoms: _117  and  _119
REMARK   50  A    between atoms: _119  and  _120
REMARK   51  A    between atoms: _119  and  _122
REMARK   52  A    between atoms: _122  and  _123
REMARK   53  A    between atoms: _123  and  _124
REMARK   54  A    between atoms: _124  and  _125
REMARK   55  A    between atoms: _125  and  _126
REMARK   56  A    between atoms: _131  and  _132
REMARK   57  A    between atoms: _137  and  _139
REMARK   58  A    between atoms: _139  and  _140
REMARK   59  A    between atoms: _139  and  _142
REMARK   60  A    between atoms: _145  and  _147
REMARK   61  A    between atoms: _147  and  _148
REMARK   62  A    between atoms: _147  and  _150
REMARK   63  A    between atoms: _150  and  _151
REMARK   64  A    between atoms: _156  and  _158
REMARK   65  A    between atoms: _158  and  _159
REMARK   66  A    between atoms: _158  and  _161
REMARK   67  A    between atoms: _161  and  _162
REMARK   68  A    between atoms: _165  and  _167
REMARK   69  A    between atoms: _167  and  _168
REMARK   70  A    between atoms: _167  and  _170
REMARK   71  A    between atoms: _170  and  _171
REMARK   72  A    between atoms: _177  and  _179
REMARK   73  A    between atoms: _179  and  _180
REMARK   74  A    between atoms: _179  and  _182
REMARK   75  A    between atoms: _182  and  _183
REMARK   76  A    between atoms: _183  and  _184
REMARK   77  A    between atoms: _184  and  _185
REMARK   78  A    between atoms: _185  and  _186
REMARK   79  A    between atoms: _190  and  _192
REMARK   80  A    between atoms: _192  and  _193
REMARK   81  A    between atoms: _192  and  _195
REMARK   82  A    between atoms: _195  and  _196
REMARK   83  A    between atoms: _201  and  _203
REMARK   84  A    between atoms: _203  and  _204
REMARK   85  A    between atoms: _203  and  _206
REMARK   86  A    between atoms: _206  and  _207
REMARK   87  A    between atoms: _210  and  _212
REMARK   88  A    between atoms: _212  and  _213
REMARK   89  A    between atoms: _212  and  _215
REMARK   90  A    between atoms: _215  and  _216
REMARK   91  A    between atoms: _219  and  _221
REMARK   92  A    between atoms: _221  and  _222
REMARK   93  A    between atoms: _221  and  _224
REMARK   94  A    between atoms: _224  and  _225
REMARK   95  A    between atoms: _228  and  _230
REMARK   96  A    between atoms: _230  and  _231
REMARK   97  A    between atoms: _230  and  _233
REMARK   98  A    between atoms: _235  and  _237
REMARK   99  A    between atoms: _237  and  _238
REMARK  100  A    between atoms: _237  and  _240
REMARK  101  A    between atoms: _240  and  _241
REMARK  102  A    between atoms: _241  and  _242
REMARK  103  A    between atoms: _242  and  _243
REMARK  104  A    between atoms: _252  and  _254
REMARK  105  A    between atoms: _254  and  _255
REMARK  106  A    between atoms: _254  and  _257
REMARK  107  A    between atoms: _257  and  _258
REMARK  108  A    between atoms: _258  and  _259
REMARK  109  A    between atoms: _259  and  _260
REMARK  110  A    between atoms: _260  and  _261
REMARK  111  A    between atoms: _265  and  _267
REMARK  112  A    between atoms: _267  and  _268
REMARK  113  A    between atoms: _267  and  _270
REMARK  114  A    between atoms: _270  and  _271
REMARK  115  A    between atoms: _274  and  _276
REMARK  116  A    between atoms: _276  and  _277
REMARK  117  A    between atoms: _280  and  _282
REMARK  118  A    between atoms: _282  and  _283
REMARK  119  A    between atoms: _282  and  _285
REMARK  120  A    between atoms: _288  and  _290
REMARK  121  A    between atoms: _290  and  _291
REMARK  122  A    between atoms: _290  and  _293
REMARK  123  A    between atoms: _293  and  _294
REMARK  124  A    between atoms: _299  and  _301
REMARK  125  A    between atoms: _301  and  _302
REMARK  126  A    between atoms: _301  and  _304
REMARK  127  A    between atoms: _304  and  _305
REMARK  128  A    between atoms: _311  and  _313
REMARK  129  A    between atoms: _313  and  _314
REMARK  130  A    between atoms: _313  and  _316
REMARK  131  A    between atoms: _316  and  _317
REMARK  132  A    between atoms: _320  and  _322
REMARK  133  A    between atoms: _322  and  _323
REMARK  134  A    between atoms: _326  and  _328
REMARK  135  A    between atoms: _328  and  _329
REMARK  136  A    between atoms: _328  and  _331
REMARK  137  A    between atoms: _331  and  _332
REMARK  138  A    between atoms: _334  and  _336
REMARK  139  A    between atoms: _336  and  _337
REMARK  140  A    between atoms: _336  and  _339
REMARK                            x       y       z     vdW  Elec       q    Type
REMARK                         _______ _______ _______ _____ _____    ______ ____
ROOT
ATOM      1  O   HOH     1      30.507 -10.593   7.465  0.00  0.00    +0.000 OA
ENDROOT
TORSDOF 0
REMARK  Name = ../refined-set-2016/4g90/4g90_pocket.pdb
REMARK  140 active torsions:
REMARK  status: ('A' for Active; 'I' for Inactive)
REMARK    1  A    between atoms: _1  and  _3
REMARK    2  A    between atoms: _3  and  _4
REMARK    3  A    between atoms: _3  and  _6
REMARK    4  A    between atoms: _6  and  _7
REMARK    5  A    between atoms: _7  and  _8
REMARK    6  A    between atoms: _11  and  _13
REMARK    7  A    between atoms: _13  and  _14
REMARK    8  A    between atoms: _17  and  _19
REMARK    9  A    between atoms: _19  and  _20
REMARK   10  A    between atoms: _19  and  _22
REMARK   11  A    between atoms: _22  and  _23
REMARK   12  A    between atoms: _23  and  _24
REMARK   13  A    between atoms: _24  and  _25
REMARK   14  A    between atoms: _25  and  _26
REMARK   15  A    between atoms: _30  and  _32
REMARK   16  A    between atoms: _32  and  _33
REMARK   17  A    between atoms: _32  and  _35
REMARK   18  A    between atoms: _35  and  _36
REMARK   19  A    between atoms: _42  and  _44
REMARK   20  A    between atoms: _44  and  _45
REMARK   21  A    between atoms: _44  and  _47
REMARK   22  A    between atoms: _47  and  _48
REMARK   23  A    between atoms: _48  and  _49
REMARK   24  A    between atoms: _49  and  _50
REMARK   25  A    between atoms: _59  and  _61
REMARK   26  A    between atoms: _61  and  _62
REMARK   27  A    between atoms: _61  and  _64
REMARK   28  A    between atoms: _64  and  _65
REMARK   29  A    between atoms: _65  and  _66
REMARK   30  A    between atoms: _71  and  _73
REMARK   31  A    between atoms: _73  and  _74
REMARK   32  A    between atoms: _73  and  _76
REMARK   33  A    between atoms: _76  and  _77
REMARK   34  A    between atoms: _82  and  _84
REMARK   35  A    between atoms: _84  and  _85
REMARK   36  A    between atoms: _84  and  _87
REMARK   37  A    between atoms: _87  and  _88
REMARK   38  A    between atoms: _88  and  _89
REMARK   39  A    between atoms: _91  and  _93
REMARK   40  A    between atoms: _93  and  _94
REMARK   41  A    between atoms: _93  and  _96
REMARK   42  A    between atoms: _96  and  _97
REMARK   43  A    between atoms: _100  and  _102
REMARK   44  A    between atoms: _102  and  _103
REMARK   45  A    between atoms: _102  and  _105
REMARK   46  A    between atoms: _105  and  _106
REMARK   47  A    between atoms: _106  and  _107
REMARK   48  A    between atoms: _107  and  _108
REMARK   49  A    between atoms: _117  and  _119
REMARK   50  A    between atoms: _119  and  _120
REMARK   51  A    between atoms: _119  and  _122
REMARK   52  A    between atoms: _122  and  _123
REMARK   53  A    between atoms: _123  and  _124
REMARK   54  A    between atoms: _124  and  _125
REMARK   55  A    between atoms: _125  and  _126
REMARK   56  A    between atoms: _131  and  _132
REMARK   57  A    between atoms: _137  and  _139
REMARK   58  A    between atoms: _139  and  _140
REMARK   59  A    between atoms: _139  and  _142
REMARK   60  A    between atoms: _145  and  _147
REMARK   61  A    between atoms: _147  and  _148
REMARK   62  A    between atoms: _147  and  _150
REMARK   63  A    between atoms: _150  and  _151
REMARK   64  A    between atoms: _156  and  _158
REMARK   65  A    between atoms: _158  and  _159
REMARK   66  A    between atoms: _158  and  _161
REMARK   67  A    between atoms: _161  and  _162
REMARK   68  A    between atoms: _165  and  _167
REMARK   69  A    between atoms: _167  and  _168
REMARK   70  A    between atoms: _167  and  _170
REMARK   71  A    between atoms: _170  and  _171
REMARK   72  A    between atoms: _177  and  _179
REMARK   73  A    between atoms: _179  and  _180
REMARK   74  A    between atoms: _179  and  _182
REMARK   75  A    between atoms: _182  and  _183
REMARK   76  A    between atoms: _183  and  _184
REMARK   77  A    between atoms: _184  and  _185
REMARK   78  A    between atoms: _185  and  _186
REMARK   79  A    between atoms: _190  and  _192
REMARK   80  A    between atoms: _192  and  _193
REMARK   81  A    between atoms: _192  and  _195
REMARK   82  A    between atoms: _195  and  _196
REMARK   83  A    between atoms: _201  and  _203
REMARK   84  A    between atoms: _203  and  _204
REMARK   85  A    between atoms: _203  and  _206
REMARK   86  A    between atoms: _206  and  _207
REMARK   87  A    between atoms: _210  and  _212
REMARK   88  A    between atoms: _212  and  _213
REMARK   89  A    between atoms: _212  and  _215
REMARK   90  A    between atoms: _215  and  _216
REMARK   91  A    between atoms: _219  and  _221
REMARK   92  A    between atoms: _221  and  _222
REMARK   93  A    between atoms: _221  and  _224
REMARK   94  A    between atoms: _224  and  _225
REMARK   95  A    between atoms: _228  and  _230
REMARK   96  A    between atoms: _230  and  _231
REMARK   97  A    between atoms: _230  and  _233
REMARK   98  A    between atoms: _235  and  _237
REMARK   99  A    between atoms: _237  and  _238
REMARK  100  A    between atoms: _237  and  _240
REMARK  101  A    between atoms: _240  and  _241
REMARK  102  A    between atoms: _241  and  _242
REMARK  103  A    between atoms: _242  and  _243
REMARK  104  A    between atoms: _252  and  _254
REMARK  105  A    between atoms: _254  and  _255
REMARK  106  A    between atoms: _254  and  _257
REMARK  107  A    between atoms: _257  and  _258
REMARK  108  A    between atoms: _258  and  _259
REMARK  109  A    between atoms: _259  and  _260
REMARK  110  A    between atoms: _260  and  _261
REMARK  111  A    between atoms: _265  and  _267
REMARK  112  A    between atoms: _267  and  _268
REMARK  113  A    between atoms: _267  and  _270
REMARK  114  A    between atoms: _270  and  _271
REMARK  115  A    between atoms: _274  and  _276
REMARK  116  A    between atoms: _276  and  _277
REMARK  117  A    between atoms: _280  and  _282
REMARK  118  A    between atoms: _282  and  _283
REMARK  119  A    between atoms: _282  and  _285
REMARK  120  A    between atoms: _288  and  _290
REMARK  121  A    between atoms: _290  and  _291
REMARK  122  A    between atoms: _290  and  _293
REMARK  123  A    between atoms: _293  and  _294
REMARK  124  A    between atoms: _299  and  _301
REMARK  125  A    between atoms: _301  and  _302
REMARK  126  A    between atoms: _301  and  _304
REMARK  127  A    between atoms: _304  and  _305
REMARK  128  A    between atoms: _311  and  _313
REMARK  129  A    between atoms: _313  and  _314
REMARK  130  A    between atoms: _313  and  _316
REMARK  131  A    between atoms: _316  and  _317
REMARK  132  A    between atoms: _320  and  _322
REMARK  133  A    between atoms: _322  and  _323
REMARK  134  A    between atoms: _326  and  _328
REMARK  135  A    between atoms: _328  and  _329
REMARK  136  A    between atoms: _328  and  _331
REMARK  137  A    between atoms: _331  and  _332
REMARK  138  A    between atoms: _334  and  _336
REMARK  139  A    between atoms: _336  and  _337
REMARK  140  A    between atoms: _336  and  _339
REMARK                            x       y       z     vdW  Elec       q    Type
REMARK                         _______ _______ _______ _____ _____    ______ ____
ROOT
ATOM      1  O   HOH     1      37.883  13.185  10.926  0.00  0.00    +0.000 OA
ENDROOT
TORSDOF 0
REMARK  Name = ../refined-set-2016/4g90/4g90_pocket.pdb
REMARK  140 active torsions:
REMARK  status: ('A' for Active; 'I' for Inactive)
REMARK    1  A    between atoms: _1  and  _3
REMARK    2  A    between atoms: _3  and  _4
REMARK    3  A    between atoms: _3  and  _6
REMARK    4  A    between atoms: _6  and  _7
REMARK    5  A    between atoms: _7  and  _8
REMARK    6  A    between atoms: _11  and  _13
REMARK    7  A    between atoms: _13  and  _14
REMARK    8  A    between atoms: _17  and  _19
REMARK    9  A    between atoms: _19  and  _20
REMARK   10  A    between atoms: _19  and  _22
REMARK   11  A    between atoms: _22  and  _23
REMARK   12  A    between atoms: _23  and  _24
REMARK   13  A    between atoms: _24  and  _25
REMARK   14  A    between atoms: _25  and  _26
REMARK   15  A    between atoms: _30  and  _32
REMARK   16  A    between atoms: _32  and  _33
REMARK   17  A    between atoms: _32  and  _35
REMARK   18  A    between atoms: _35  and  _36
REMARK   19  A    between atoms: _42  and  _44
REMARK   20  A    between atoms: _44  and  _45
REMARK   21  A    between atoms: _44  and  _47
REMARK   22  A    between atoms: _47  and  _48
REMARK   23  A    between atoms: _48  and  _49
REMARK   24  A    between atoms: _49  and  _50
REMARK   25  A    between atoms: _59  and  _61
REMARK   26  A    between atoms: _61  and  _62
REMARK   27  A    between atoms: _61  and  _64
REMARK   28  A    between atoms: _64  and  _65
REMARK   29  A    between atoms: _65  and  _66
REMARK   30  A    between atoms: _71  and  _73
REMARK   31  A    between atoms: _73  and  _74
REMARK   32  A    between atoms: _73  and  _76
REMARK   33  A    between atoms: _76  and  _77
REMARK   34  A    between atoms: _82  and  _84
REMARK   35  A    between atoms: _84  and  _85
REMARK   36  A    between atoms: _84  and  _87
REMARK   37  A    between atoms: _87  and  _88
REMARK   38  A    between atoms: _88  and  _89
REMARK   39  A    between atoms: _91  and  _93
REMARK   40  A    between atoms: _93  and  _94
REMARK   41  A    between atoms: _93  and  _96
REMARK   42  A    between atoms: _96  and  _97
REMARK   43  A    between atoms: _100  and  _102
REMARK   44  A    between atoms: _102  and  _103
REMARK   45  A    between atoms: _102  and  _105
REMARK   46  A    between atoms: _105  and  _106
REMARK   47  A    between atoms: _106  and  _107
REMARK   48  A    between atoms: _107  and  _108
REMARK   49  A    between atoms: _117  and  _119
REMARK   50  A    between atoms: _119  and  _120
REMARK   51  A    between atoms: _119  and  _122
REMARK   52  A    between atoms: _122  and  _123
REMARK   53  A    between atoms: _123  and  _124
REMARK   54  A    between atoms: _124  and  _125
REMARK   55  A    between atoms: _125  and  _126
REMARK   56  A    between atoms: _131  and  _132
REMARK   57  A    between atoms: _137  and  _139
REMARK   58  A    between atoms: _139  and  _140
REMARK   59  A    between atoms: _139  and  _142
REMARK   60  A    between atoms: _145  and  _147
REMARK   61  A    between atoms: _147  and  _148
REMARK   62  A    between atoms: _147  and  _150
REMARK   63  A    between atoms: _150  and  _151
REMARK   64  A    between atoms: _156  and  _158
REMARK   65  A    between atoms: _158  and  _159
REMARK   66  A    between atoms: _158  and  _161
REMARK   67  A    between atoms: _161  and  _162
REMARK   68  A    between atoms: _165  and  _167
REMARK   69  A    between atoms: _167  and  _168
REMARK   70  A    between atoms: _167  and  _170
REMARK   71  A    between atoms: _170  and  _171
REMARK   72  A    between atoms: _177  and  _179
REMARK   73  A    between atoms: _179  and  _180
REMARK   74  A    between atoms: _179  and  _182
REMARK   75  A    between atoms: _182  and  _183
REMARK   76  A    between atoms: _183  and  _184
REMARK   77  A    between atoms: _184  and  _185
REMARK   78  A    between atoms: _185  and  _186
REMARK   79  A    between atoms: _190  and  _192
REMARK   80  A    between atoms: _192  and  _193
REMARK   81  A    between atoms: _192  and  _195
REMARK   82  A    between atoms: _195  and  _196
REMARK   83  A    between atoms: _201  and  _203
REMARK   84  A    between atoms: _203  and  _204
REMARK   85  A    between atoms: _203  and  _206
REMARK   86  A    between atoms: _206  and  _207
REMARK   87  A    between atoms: _210  and  _212
REMARK   88  A    between atoms: _212  and  _213
REMARK   89  A    between atoms: _212  and  _215
REMARK   90  A    between atoms: _215  and  _216
REMARK   91  A    between atoms: _219  and  _221
REMARK   92  A    between atoms: _221  and  _222
REMARK   93  A    between atoms: _221  and  _224
REMARK   94  A    between atoms: _224  and  _225
REMARK   95  A    between atoms: _228  and  _230
REMARK   96  A    between atoms: _230  and  _231
REMARK   97  A    between atoms: _230  and  _233
REMARK   98  A    between atoms: _235  and  _237
REMARK   99  A    between atoms: _237  and  _238
REMARK  100  A    between atoms: _237  and  _240
REMARK  101  A    between atoms: _240  and  _241
REMARK  102  A    between atoms: _241  and  _242
REMARK  103  A    between atoms: _242  and  _243
REMARK  104  A    between atoms: _252  and  _254
REMARK  105  A    between atoms: _254  and  _255
REMARK  106  A    between atoms: _254  and  _257
REMARK  107  A    between atoms: _257  and  _258
REMARK  108  A    between atoms: _258  and  _259
REMARK  109  A    between atoms: _259  and  _260
REMARK  110  A    between atoms: _260  and  _261
REMARK  111  A    between atoms: _265  and  _267
REMARK  112  A    between atoms: _267  and  _268
REMARK  113  A    between atoms: _267  and  _270
REMARK  114  A    between atoms: _270  and  _271
REMARK  115  A    between atoms: _274  and  _276
REMARK  116  A    between atoms: _276  and  _277
REMARK  117  A    between atoms: _280  and  _282
REMARK  118  A    between atoms: _282  and  _283
REMARK  119  A    between atoms: _282  and  _285
REMARK  120  A    between atoms: _288  and  _290
REMARK  121  A    between atoms: _290  and  _291
REMARK  122  A    between atoms: _290  and  _293
REMARK  123  A    between atoms: _293  and  _294
REMARK  124  A    between atoms: _299  and  _301
REMARK  125  A    between atoms: _301  and  _302
REMARK  126  A    between atoms: _301  and  _304
REMARK  127  A    between atoms: _304  and  _305
REMARK  128  A    between atoms: _311  and  _313
REMARK  129  A    between atoms: _313  and  _314
REMARK  130  A    between atoms: _313  and  _316
REMARK  131  A    between atoms: _316  and  _317
REMARK  132  A    between atoms: _320  and  _322
REMARK  133  A    between atoms: _322  and  _323
REMARK  134  A    between atoms: _326  and  _328
REMARK  135  A    between atoms: _328  and  _329
REMARK  136  A    between atoms: _328  and  _331
REMARK  137  A    between atoms: _331  and  _332
REMARK  138  A    between atoms: _334  and  _336
REMARK  139  A    between atoms: _336  and  _337
REMARK  140  A    between atoms: _336  and  _339
REMARK                            x       y       z     vdW  Elec       q    Type
REMARK                         _______ _______ _______ _____ _____    ______ ____
ROOT
ATOM      1  O   HOH     1      31.847  -6.794  11.396  0.00  0.00    +0.000 OA
ENDROOT
TORSDOF 0
REMARK  Name = ../refined-set-2016/4g90/4g90_pocket.pdb
REMARK  140 active torsions:
REMARK  status: ('A' for Active; 'I' for Inactive)
REMARK    1  A    between atoms: _1  and  _3
REMARK    2  A    between atoms: _3  and  _4
REMARK    3  A    between atoms: _3  and  _6
REMARK    4  A    between atoms: _6  and  _7
REMARK    5  A    between atoms: _7  and  _8
REMARK    6  A    between atoms: _11  and  _13
REMARK    7  A    between atoms: _13  and  _14
REMARK    8  A    between atoms: _17  and  _19
REMARK    9  A    between atoms: _19  and  _20
REMARK   10  A    between atoms: _19  and  _22
REMARK   11  A    between atoms: _22  and  _23
REMARK   12  A    between atoms: _23  and  _24
REMARK   13  A    between atoms: _24  and  _25
REMARK   14  A    between atoms: _25  and  _26
REMARK   15  A    between atoms: _30  and  _32
REMARK   16  A    between atoms: _32  and  _33
REMARK   17  A    between atoms: _32  and  _35
REMARK   18  A    between atoms: _35  and  _36
REMARK   19  A    between atoms: _42  and  _44
REMARK   20  A    between atoms: _44  and  _45
REMARK   21  A    between atoms: _44  and  _47
REMARK   22  A    between atoms: _47  and  _48
REMARK   23  A    between atoms: _48  and  _49
REMARK   24  A    between atoms: _49  and  _50
REMARK   25  A    between atoms: _59  and  _61
REMARK   26  A    between atoms: _61  and  _62
REMARK   27  A    between atoms: _61  and  _64
REMARK   28  A    between atoms: _64  and  _65
REMARK   29  A    between atoms: _65  and  _66
REMARK   30  A    between atoms: _71  and  _73
REMARK   31  A    between atoms: _73  and  _74
REMARK   32  A    between atoms: _73  and  _76
REMARK   33  A    between atoms: _76  and  _77
REMARK   34  A    between atoms: _82  and  _84
REMARK   35  A    between atoms: _84  and  _85
REMARK   36  A    between atoms: _84  and  _87
REMARK   37  A    between atoms: _87  and  _88
REMARK   38  A    between atoms: _88  and  _89
REMARK   39  A    between atoms: _91  and  _93
REMARK   40  A    between atoms: _93  and  _94
REMARK   41  A    between atoms: _93  and  _96
REMARK   42  A    between atoms: _96  and  _97
REMARK   43  A    between atoms: _100  and  _102
REMARK   44  A    between atoms: _102  and  _103
REMARK   45  A    between atoms: _102  and  _105
REMARK   46  A    between atoms: _105  and  _106
REMARK   47  A    between atoms: _106  and  _107
REMARK   48  A    between atoms: _107  and  _108
REMARK   49  A    between atoms: _117  and  _119
REMARK   50  A    between atoms: _119  and  _120
REMARK   51  A    between atoms: _119  and  _122
REMARK   52  A    between atoms: _122  and  _123
REMARK   53  A    between atoms: _123  and  _124
REMARK   54  A    between atoms: _124  and  _125
REMARK   55  A    between atoms: _125  and  _126
REMARK   56  A    between atoms: _131  and  _132
REMARK   57  A    between atoms: _137  and  _139
REMARK   58  A    between atoms: _139  and  _140
REMARK   59  A    between atoms: _139  and  _142
REMARK   60  A    between atoms: _145  and  _147
REMARK   61  A    between atoms: _147  and  _148
REMARK   62  A    between atoms: _147  and  _150
REMARK   63  A    between atoms: _150  and  _151
REMARK   64  A    between atoms: _156  and  _158
REMARK   65  A    between atoms: _158  and  _159
REMARK   66  A    between atoms: _158  and  _161
REMARK   67  A    between atoms: _161  and  _162
REMARK   68  A    between atoms: _165  and  _167
REMARK   69  A    between atoms: _167  and  _168
REMARK   70  A    between atoms: _167  and  _170
REMARK   71  A    between atoms: _170  and  _171
REMARK   72  A    between atoms: _177  and  _179
REMARK   73  A    between atoms: _179  and  _180
REMARK   74  A    between atoms: _179  and  _182
REMARK   75  A    between atoms: _182  and  _183
REMARK   76  A    between atoms: _183  and  _184
REMARK   77  A    between atoms: _184  and  _185
REMARK   78  A    between atoms: _185  and  _186
REMARK   79  A    between atoms: _190  and  _192
REMARK   80  A    between atoms: _192  and  _193
REMARK   81  A    between atoms: _192  and  _195
REMARK   82  A    between atoms: _195  and  _196
REMARK   83  A    between atoms: _201  and  _203
REMARK   84  A    between atoms: _203  and  _204
REMARK   85  A    between atoms: _203  and  _206
REMARK   86  A    between atoms: _206  and  _207
REMARK   87  A    between atoms: _210  and  _212
REMARK   88  A    between atoms: _212  and  _213
REMARK   89  A    between atoms: _212  and  _215
REMARK   90  A    between atoms: _215  and  _216
REMARK   91  A    between atoms: _219  and  _221
REMARK   92  A    between atoms: _221  and  _222
REMARK   93  A    between atoms: _221  and  _224
REMARK   94  A    between atoms: _224  and  _225
REMARK   95  A    between atoms: _228  and  _230
REMARK   96  A    between atoms: _230  and  _231
REMARK   97  A    between atoms: _230  and  _233
REMARK   98  A    between atoms: _235  and  _237
REMARK   99  A    between atoms: _237  and  _238
REMARK  100  A    between atoms: _237  and  _240
REMARK  101  A    between atoms: _240  and  _241
REMARK  102  A    between atoms: _241  and  _242
REMARK  103  A    between atoms: _242  and  _243
REMARK  104  A    between atoms: _252  and  _254
REMARK  105  A    between atoms: _254  and  _255
REMARK  106  A    between atoms: _254  and  _257
REMARK  107  A    between atoms: _257  and  _258
REMARK  108  A    between atoms: _258  and  _259
REMARK  109  A    between atoms: _259  and  _260
REMARK  110  A    between atoms: _260  and  _261
REMARK  111  A    between atoms: _265  and  _267
REMARK  112  A    between atoms: _267  and  _268
REMARK  113  A    between atoms: _267  and  _270
REMARK  114  A    between atoms: _270  and  _271
REMARK  115  A    between atoms: _274  and  _276
REMARK  116  A    between atoms: _276  and  _277
REMARK  117  A    between atoms: _280  and  _282
REMARK  118  A    between atoms: _282  and  _283
REMARK  119  A    between atoms: _282  and  _285
REMARK  120  A    between atoms: _288  and  _290
REMARK  121  A    between atoms: _290  and  _291
REMARK  122  A    between atoms: _290  and  _293
REMARK  123  A    between atoms: _293  and  _294
REMARK  124  A    between atoms: _299  and  _301
REMARK  125  A    between atoms: _301  and  _302
REMARK  126  A    between atoms: _301  and  _304
REMARK  127  A    between atoms: _304  and  _305
REMARK  128  A    between atoms: _311  and  _313
REMARK  129  A    between atoms: _313  and  _314
REMARK  130  A    between atoms: _313  and  _316
REMARK  131  A    between atoms: _316  and  _317
REMARK  132  A    between atoms: _320  and  _322
REMARK  133  A    between atoms: _322  and  _323
REMARK  134  A    between atoms: _326  and  _328
REMARK  135  A    between atoms: _328  and  _329
REMARK  136  A    between atoms: _328  and  _331
REMARK  137  A    between atoms: _331  and  _332
REMARK  138  A    between atoms: _334  and  _336
REMARK  139  A    between atoms: _336  and  _337
REMARK  140  A    between atoms: _336  and  _339
REMARK                            x       y       z     vdW  Elec       q    Type
REMARK                         _______ _______ _______ _____ _____    ______ ____
ROOT
ATOM      1  O   HOH     1      37.139  12.960  14.594  0.00  0.00    +0.000 OA
ENDROOT
TORSDOF 0
REMARK  Name = ../refined-set-2016/4g90/4g90_pocket.pdb
REMARK  140 active torsions:
REMARK  status: ('A' for Active; 'I' for Inactive)
REMARK    1  A    between atoms: _1  and  _3
REMARK    2  A    between atoms: _3  and  _4
REMARK    3  A    between atoms: _3  and  _6
REMARK    4  A    between atoms: _6  and  _7
REMARK    5  A    between atoms: _7  and  _8
REMARK    6  A    between atoms: _11  and  _13
REMARK    7  A    between atoms: _13  and  _14
REMARK    8  A    between atoms: _17  and  _19
REMARK    9  A    between atoms: _19  and  _20
REMARK   10  A    between atoms: _19  and  _22
REMARK   11  A    between atoms: _22  and  _23
REMARK   12  A    between atoms: _23  and  _24
REMARK   13  A    between atoms: _24  and  _25
REMARK   14  A    between atoms: _25  and  _26
REMARK   15  A    between atoms: _30  and  _32
REMARK   16  A    between atoms: _32  and  _33
REMARK   17  A    between atoms: _32  and  _35
REMARK   18  A    between atoms: _35  and  _36
REMARK   19  A    between atoms: _42  and  _44
REMARK   20  A    between atoms: _44  and  _45
REMARK   21  A    between atoms: _44  and  _47
REMARK   22  A    between atoms: _47  and  _48
REMARK   23  A    between atoms: _48  and  _49
REMARK   24  A    between atoms: _49  and  _50
REMARK   25  A    between atoms: _59  and  _61
REMARK   26  A    between atoms: _61  and  _62
REMARK   27  A    between atoms: _61  and  _64
REMARK   28  A    between atoms: _64  and  _65
REMARK   29  A    between atoms: _65  and  _66
REMARK   30  A    between atoms: _71  and  _73
REMARK   31  A    between atoms: _73  and  _74
REMARK   32  A    between atoms: _73  and  _76
REMARK   33  A    between atoms: _76  and  _77
REMARK   34  A    between atoms: _82  and  _84
REMARK   35  A    between atoms: _84  and  _85
REMARK   36  A    between atoms: _84  and  _87
REMARK   37  A    between atoms: _87  and  _88
REMARK   38  A    between atoms: _88  and  _89
REMARK   39  A    between atoms: _91  and  _93
REMARK   40  A    between atoms: _93  and  _94
REMARK   41  A    between atoms: _93  and  _96
REMARK   42  A    between atoms: _96  and  _97
REMARK   43  A    between atoms: _100  and  _102
REMARK   44  A    between atoms: _102  and  _103
REMARK   45  A    between atoms: _102  and  _105
REMARK   46  A    between atoms: _105  and  _106
REMARK   47  A    between atoms: _106  and  _107
REMARK   48  A    between atoms: _107  and  _108
REMARK   49  A    between atoms: _117  and  _119
REMARK   50  A    between atoms: _119  and  _120
REMARK   51  A    between atoms: _119  and  _122
REMARK   52  A    between atoms: _122  and  _123
REMARK   53  A    between atoms: _123  and  _124
REMARK   54  A    between atoms: _124  and  _125
REMARK   55  A    between atoms: _125  and  _126
REMARK   56  A    between atoms: _131  and  _132
REMARK   57  A    between atoms: _137  and  _139
REMARK   58  A    between atoms: _139  and  _140
REMARK   59  A    between atoms: _139  and  _142
REMARK   60  A    between atoms: _145  and  _147
REMARK   61  A    between atoms: _147  and  _148
REMARK   62  A    between atoms: _147  and  _150
REMARK   63  A    between atoms: _150  and  _151
REMARK   64  A    between atoms: _156  and  _158
REMARK   65  A    between atoms: _158  and  _159
REMARK   66  A    between atoms: _158  and  _161
REMARK   67  A    between atoms: _161  and  _162
REMARK   68  A    between atoms: _165  and  _167
REMARK   69  A    between atoms: _167  and  _168
REMARK   70  A    between atoms: _167  and  _170
REMARK   71  A    between atoms: _170  and  _171
REMARK   72  A    between atoms: _177  and  _179
REMARK   73  A    between atoms: _179  and  _180
REMARK   74  A    between atoms: _179  and  _182
REMARK   75  A    between atoms: _182  and  _183
REMARK   76  A    between atoms: _183  and  _184
REMARK   77  A    between atoms: _184  and  _185
REMARK   78  A    between atoms: _185  and  _186
REMARK   79  A    between atoms: _190  and  _192
REMARK   80  A    between atoms: _192  and  _193
REMARK   81  A    between atoms: _192  and  _195
REMARK   82  A    between atoms: _195  and  _196
REMARK   83  A    between atoms: _201  and  _203
REMARK   84  A    between atoms: _203  and  _204
REMARK   85  A    between atoms: _203  and  _206
REMARK   86  A    between atoms: _206  and  _207
REMARK   87  A    between atoms: _210  and  _212
REMARK   88  A    between atoms: _212  and  _213
REMARK   89  A    between atoms: _212  and  _215
REMARK   90  A    between atoms: _215  and  _216
REMARK   91  A    between atoms: _219  and  _221
REMARK   92  A    between atoms: _221  and  _222
REMARK   93  A    between atoms: _221  and  _224
REMARK   94  A    between atoms: _224  and  _225
REMARK   95  A    between atoms: _228  and  _230
REMARK   96  A    between atoms: _230  and  _231
REMARK   97  A    between atoms: _230  and  _233
REMARK   98  A    between atoms: _235  and  _237
REMARK   99  A    between atoms: _237  and  _238
REMARK  100  A    between atoms: _237  and  _240
REMARK  101  A    between atoms: _240  and  _241
REMARK  102  A    between atoms: _241  and  _242
REMARK  103  A    between atoms: _242  and  _243
REMARK  104  A    between atoms: _252  and  _254
REMARK  105  A    between atoms: _254  and  _255
REMARK  106  A    between atoms: _254  and  _257
REMARK  107  A    between atoms: _257  and  _258
REMARK  108  A    between atoms: _258  and  _259
REMARK  109  A    between atoms: _259  and  _260
REMARK  110  A    between atoms: _260  and  _261
REMARK  111  A    between atoms: _265  and  _267
REMARK  112  A    between atoms: _267  and  _268
REMARK  113  A    between atoms: _267  and  _270
REMARK  114  A    between atoms: _270  and  _271
REMARK  115  A    between atoms: _274  and  _276
REMARK  116  A    between atoms: _276  and  _277
REMARK  117  A    between atoms: _280  and  _282
REMARK  118  A    between atoms: _282  and  _283
REMARK  119  A    between atoms: _282  and  _285
REMARK  120  A    between atoms: _288  and  _290
REMARK  121  A    between atoms: _290  and  _291
REMARK  122  A    between atoms: _290  and  _293
REMARK  123  A    between atoms: _293  and  _294
REMARK  124  A    between atoms: _299  and  _301
REMARK  125  A    between atoms: _301  and  _302
REMARK  126  A    between atoms: _301  and  _304
REMARK  127  A    between atoms: _304  and  _305
REMARK  128  A    between atoms: _311  and  _313
REMARK  129  A    between atoms: _313  and  _314
REMARK  130  A    between atoms: _313  and  _316
REMARK  131  A    between atoms: _316  and  _317
REMARK  132  A    between atoms: _320  and  _322
REMARK  133  A    between atoms: _322  and  _323
REMARK  134  A    between atoms: _326  and  _328
REMARK  135  A    between atoms: _328  and  _329
REMARK  136  A    between atoms: _328  and  _331
REMARK  137  A    between atoms: _331  and  _332
REMARK  138  A    between atoms: _334  and  _336
REMARK  139  A    between atoms: _336  and  _337
REMARK  140  A    between atoms: _336  and  _339
REMARK                            x       y       z     vdW  Elec       q    Type
REMARK                         _______ _______ _______ _____ _____    ______ ____
ROOT
ATOM      1  O   HOH     1      42.378   0.434  10.676  0.00  0.00    +0.000 OA
ENDROOT
TORSDOF 0
REMARK  Name = ../refined-set-2016/4g90/4g90_pocket.pdb
REMARK  140 active torsions:
REMARK  status: ('A' for Active; 'I' for Inactive)
REMARK    1  A    between atoms: _1  and  _3
REMARK    2  A    between atoms: _3  and  _4
REMARK    3  A    between atoms: _3  and  _6
REMARK    4  A    between atoms: _6  and  _7
REMARK    5  A    between atoms: _7  and  _8
REMARK    6  A    between atoms: _11  and  _13
REMARK    7  A    between atoms: _13  and  _14
REMARK    8  A    between atoms: _17  and  _19
REMARK    9  A    between atoms: _19  and  _20
REMARK   10  A    between atoms: _19  and  _22
REMARK   11  A    between atoms: _22  and  _23
REMARK   12  A    between atoms: _23  and  _24
REMARK   13  A    between atoms: _24  and  _25
REMARK   14  A    between atoms: _25  and  _26
REMARK   15  A    between atoms: _30  and  _32
REMARK   16  A    between atoms: _32  and  _33
REMARK   17  A    between atoms: _32  and  _35
REMARK   18  A    between atoms: _35  and  _36
REMARK   19  A    between atoms: _42  and  _44
REMARK   20  A    between atoms: _44  and  _45
REMARK   21  A    between atoms: _44  and  _47
REMARK   22  A    between atoms: _47  and  _48
REMARK   23  A    between atoms: _48  and  _49
REMARK   24  A    between atoms: _49  and  _50
REMARK   25  A    between atoms: _59  and  _61
REMARK   26  A    between atoms: _61  and  _62
REMARK   27  A    between atoms: _61  and  _64
REMARK   28  A    between atoms: _64  and  _65
REMARK   29  A    between atoms: _65  and  _66
REMARK   30  A    between atoms: _71  and  _73
REMARK   31  A    between atoms: _73  and  _74
REMARK   32  A    between atoms: _73  and  _76
REMARK   33  A    between atoms: _76  and  _77
REMARK   34  A    between atoms: _82  and  _84
REMARK   35  A    between atoms: _84  and  _85
REMARK   36  A    between atoms: _84  and  _87
REMARK   37  A    between atoms: _87  and  _88
REMARK   38  A    between atoms: _88  and  _89
REMARK   39  A    between atoms: _91  and  _93
REMARK   40  A    between atoms: _93  and  _94
REMARK   41  A    between atoms: _93  and  _96
REMARK   42  A    between atoms: _96  and  _97
REMARK   43  A    between atoms: _100  and  _102
REMARK   44  A    between atoms: _102  and  _103
REMARK   45  A    between atoms: _102  and  _105
REMARK   46  A    between atoms: _105  and  _106
REMARK   47  A    between atoms: _106  and  _107
REMARK   48  A    between atoms: _107  and  _108
REMARK   49  A    between atoms: _117  and  _119
REMARK   50  A    between atoms: _119  and  _120
REMARK   51  A    between atoms: _119  and  _122
REMARK   52  A    between atoms: _122  and  _123
REMARK   53  A    between atoms: _123  and  _124
REMARK   54  A    between atoms: _124  and  _125
REMARK   55  A    between atoms: _125  and  _126
REMARK   56  A    between atoms: _131  and  _132
REMARK   57  A    between atoms: _137  and  _139
REMARK   58  A    between atoms: _139  and  _140
REMARK   59  A    between atoms: _139  and  _142
REMARK   60  A    between atoms: _145  and  _147
REMARK   61  A    between atoms: _147  and  _148
REMARK   62  A    between atoms: _147  and  _150
REMARK   63  A    between atoms: _150  and  _151
REMARK   64  A    between atoms: _156  and  _158
REMARK   65  A    between atoms: _158  and  _159
REMARK   66  A    between atoms: _158  and  _161
REMARK   67  A    between atoms: _161  and  _162
REMARK   68  A    between atoms: _165  and  _167
REMARK   69  A    between atoms: _167  and  _168
REMARK   70  A    between atoms: _167  and  _170
REMARK   71  A    between atoms: _170  and  _171
REMARK   72  A    between atoms: _177  and  _179
REMARK   73  A    between atoms: _179  and  _180
REMARK   74  A    between atoms: _179  and  _182
REMARK   75  A    between atoms: _182  and  _183
REMARK   76  A    between atoms: _183  and  _184
REMARK   77  A    between atoms: _184  and  _185
REMARK   78  A    between atoms: _185  and  _186
REMARK   79  A    between atoms: _190  and  _192
REMARK   80  A    between atoms: _192  and  _193
REMARK   81  A    between atoms: _192  and  _195
REMARK   82  A    between atoms: _195  and  _196
REMARK   83  A    between atoms: _201  and  _203
REMARK   84  A    between atoms: _203  and  _204
REMARK   85  A    between atoms: _203  and  _206
REMARK   86  A    between atoms: _206  and  _207
REMARK   87  A    between atoms: _210  and  _212
REMARK   88  A    between atoms: _212  and  _213
REMARK   89  A    between atoms: _212  and  _215
REMARK   90  A    between atoms: _215  and  _216
REMARK   91  A    between atoms: _219  and  _221
REMARK   92  A    between atoms: _221  and  _222
REMARK   93  A    between atoms: _221  and  _224
REMARK   94  A    between atoms: _224  and  _225
REMARK   95  A    between atoms: _228  and  _230
REMARK   96  A    between atoms: _230  and  _231
REMARK   97  A    between atoms: _230  and  _233
REMARK   98  A    between atoms: _235  and  _237
REMARK   99  A    between atoms: _237  and  _238
REMARK  100  A    between atoms: _237  and  _240
REMARK  101  A    between atoms: _240  and  _241
REMARK  102  A    between atoms: _241  and  _242
REMARK  103  A    between atoms: _242  and  _243
REMARK  104  A    between atoms: _252  and  _254
REMARK  105  A    between atoms: _254  and  _255
REMARK  106  A    between atoms: _254  and  _257
REMARK  107  A    between atoms: _257  and  _258
REMARK  108  A    between atoms: _258  and  _259
REMARK  109  A    between atoms: _259  and  _260
REMARK  110  A    between atoms: _260  and  _261
REMARK  111  A    between atoms: _265  and  _267
REMARK  112  A    between atoms: _267  and  _268
REMARK  113  A    between atoms: _267  and  _270
REMARK  114  A    between atoms: _270  and  _271
REMARK  115  A    between atoms: _274  and  _276
REMARK  116  A    between atoms: _276  and  _277
REMARK  117  A    between atoms: _280  and  _282
REMARK  118  A    between atoms: _282  and  _283
REMARK  119  A    between atoms: _282  and  _285
REMARK  120  A    between atoms: _288  and  _290
REMARK  121  A    between atoms: _290  and  _291
REMARK  122  A    between atoms: _290  and  _293
REMARK  123  A    between atoms: _293  and  _294
REMARK  124  A    between atoms: _299  and  _301
REMARK  125  A    between atoms: _301  and  _302
REMARK  126  A    between atoms: _301  and  _304
REMARK  127  A    between atoms: _304  and  _305
REMARK  128  A    between atoms: _311  and  _313
REMARK  129  A    between atoms: _313  and  _314
REMARK  130  A    between atoms: _313  and  _316
REMARK  131  A    between atoms: _316  and  _317
REMARK  132  A    between atoms: _320  and  _322
REMARK  133  A    between atoms: _322  and  _323
REMARK  134  A    between atoms: _326  and  _328
REMARK  135  A    between atoms: _328  and  _329
REMARK  136  A    between atoms: _328  and  _331
REMARK  137  A    between atoms: _331  and  _332
REMARK  138  A    between atoms: _334  and  _336
REMARK  139  A    between atoms: _336  and  _337
REMARK  140  A    between atoms: _336  and  _339
REMARK                            x       y       z     vdW  Elec       q    Type
REMARK                         _______ _______ _______ _____ _____    ______ ____
ROOT
ATOM      1  O   HOH     1      39.575  11.723   9.579  0.00  0.00    +0.000 OA
ENDROOT
TORSDOF 0
REMARK  Name = ../refined-set-2016/4g90/4g90_pocket.pdb
REMARK  140 active torsions:
REMARK  status: ('A' for Active; 'I' for Inactive)
REMARK    1  A    between atoms: _1  and  _3
REMARK    2  A    between atoms: _3  and  _4
REMARK    3  A    between atoms: _3  and  _6
REMARK    4  A    between atoms: _6  and  _7
REMARK    5  A    between atoms: _7  and  _8
REMARK    6  A    between atoms: _11  and  _13
REMARK    7  A    between atoms: _13  and  _14
REMARK    8  A    between atoms: _17  and  _19
REMARK    9  A    between atoms: _19  and  _20
REMARK   10  A    between atoms: _19  and  _22
REMARK   11  A    between atoms: _22  and  _23
REMARK   12  A    between atoms: _23  and  _24
REMARK   13  A    between atoms: _24  and  _25
REMARK   14  A    between atoms: _25  and  _26
REMARK   15  A    between atoms: _30  and  _32
REMARK   16  A    between atoms: _32  and  _33
REMARK   17  A    between atoms: _32  and  _35
REMARK   18  A    between atoms: _35  and  _36
REMARK   19  A    between atoms: _42  and  _44
REMARK   20  A    between atoms: _44  and  _45
REMARK   21  A    between atoms: _44  and  _47
REMARK   22  A    between atoms: _47  and  _48
REMARK   23  A    between atoms: _48  and  _49
REMARK   24  A    between atoms: _49  and  _50
REMARK   25  A    between atoms: _59  and  _61
REMARK   26  A    between atoms: _61  and  _62
REMARK   27  A    between atoms: _61  and  _64
REMARK   28  A    between atoms: _64  and  _65
REMARK   29  A    between atoms: _65  and  _66
REMARK   30  A    between atoms: _71  and  _73
REMARK   31  A    between atoms: _73  and  _74
REMARK   32  A    between atoms: _73  and  _76
REMARK   33  A    between atoms: _76  and  _77
REMARK   34  A    between atoms: _82  and  _84
REMARK   35  A    between atoms: _84  and  _85
REMARK   36  A    between atoms: _84  and  _87
REMARK   37  A    between atoms: _87  and  _88
REMARK   38  A    between atoms: _88  and  _89
REMARK   39  A    between atoms: _91  and  _93
REMARK   40  A    between atoms: _93  and  _94
REMARK   41  A    between atoms: _93  and  _96
REMARK   42  A    between atoms: _96  and  _97
REMARK   43  A    between atoms: _100  and  _102
REMARK   44  A    between atoms: _102  and  _103
REMARK   45  A    between atoms: _102  and  _105
REMARK   46  A    between atoms: _105  and  _106
REMARK   47  A    between atoms: _106  and  _107
REMARK   48  A    between atoms: _107  and  _108
REMARK   49  A    between atoms: _117  and  _119
REMARK   50  A    between atoms: _119  and  _120
REMARK   51  A    between atoms: _119  and  _122
REMARK   52  A    between atoms: _122  and  _123
REMARK   53  A    between atoms: _123  and  _124
REMARK   54  A    between atoms: _124  and  _125
REMARK   55  A    between atoms: _125  and  _126
REMARK   56  A    between atoms: _131  and  _132
REMARK   57  A    between atoms: _137  and  _139
REMARK   58  A    between atoms: _139  and  _140
REMARK   59  A    between atoms: _139  and  _142
REMARK   60  A    between atoms: _145  and  _147
REMARK   61  A    between atoms: _147  and  _148
REMARK   62  A    between atoms: _147  and  _150
REMARK   63  A    between atoms: _150  and  _151
REMARK   64  A    between atoms: _156  and  _158
REMARK   65  A    between atoms: _158  and  _159
REMARK   66  A    between atoms: _158  and  _161
REMARK   67  A    between atoms: _161  and  _162
REMARK   68  A    between atoms: _165  and  _167
REMARK   69  A    between atoms: _167  and  _168
REMARK   70  A    between atoms: _167  and  _170
REMARK   71  A    between atoms: _170  and  _171
REMARK   72  A    between atoms: _177  and  _179
REMARK   73  A    between atoms: _179  and  _180
REMARK   74  A    between atoms: _179  and  _182
REMARK   75  A    between atoms: _182  and  _183
REMARK   76  A    between atoms: _183  and  _184
REMARK   77  A    between atoms: _184  and  _185
REMARK   78  A    between atoms: _185  and  _186
REMARK   79  A    between atoms: _190  and  _192
REMARK   80  A    between atoms: _192  and  _193
REMARK   81  A    between atoms: _192  and  _195
REMARK   82  A    between atoms: _195  and  _196
REMARK   83  A    between atoms: _201  and  _203
REMARK   84  A    between atoms: _203  and  _204
REMARK   85  A    between atoms: _203  and  _206
REMARK   86  A    between atoms: _206  and  _207
REMARK   87  A    between atoms: _210  and  _212
REMARK   88  A    between atoms: _212  and  _213
REMARK   89  A    between atoms: _212  and  _215
REMARK   90  A    between atoms: _215  and  _216
REMARK   91  A    between atoms: _219  and  _221
REMARK   92  A    between atoms: _221  and  _222
REMARK   93  A    between atoms: _221  and  _224
REMARK   94  A    between atoms: _224  and  _225
REMARK   95  A    between atoms: _228  and  _230
REMARK   96  A    between atoms: _230  and  _231
REMARK   97  A    between atoms: _230  and  _233
REMARK   98  A    between atoms: _235  and  _237
REMARK   99  A    between atoms: _237  and  _238
REMARK  100  A    between atoms: _237  and  _240
REMARK  101  A    between atoms: _240  and  _241
REMARK  102  A    between atoms: _241  and  _242
REMARK  103  A    between atoms: _242  and  _243
REMARK  104  A    between atoms: _252  and  _254
REMARK  105  A    between atoms: _254  and  _255
REMARK  106  A    between atoms: _254  and  _257
REMARK  107  A    between atoms: _257  and  _258
REMARK  108  A    between atoms: _258  and  _259
REMARK  109  A    between atoms: _259  and  _260
REMARK  110  A    between atoms: _260  and  _261
REMARK  111  A    between atoms: _265  and  _267
REMARK  112  A    between atoms: _267  and  _268
REMARK  113  A    between atoms: _267  and  _270
REMARK  114  A    between atoms: _270  and  _271
REMARK  115  A    between atoms: _274  and  _276
REMARK  116  A    between atoms: _276  and  _277
REMARK  117  A    between atoms: _280  and  _282
REMARK  118  A    between atoms: _282  and  _283
REMARK  119  A    between atoms: _282  and  _285
REMARK  120  A    between atoms: _288  and  _290
REMARK  121  A    between atoms: _290  and  _291
REMARK  122  A    between atoms: _290  and  _293
REMARK  123  A    between atoms: _293  and  _294
REMARK  124  A    between atoms: _299  and  _301
REMARK  125  A    between atoms: _301  and  _302
REMARK  126  A    between atoms: _301  and  _304
REMARK  127  A    between atoms: _304  and  _305
REMARK  128  A    between atoms: _311  and  _313
REMARK  129  A    between atoms: _313  and  _314
REMARK  130  A    between atoms: _313  and  _316
REMARK  131  A    between atoms: _316  and  _317
REMARK  132  A    between atoms: _320  and  _322
REMARK  133  A    between atoms: _322  and  _323
REMARK  134  A    between atoms: _326  and  _328
REMARK  135  A    between atoms: _328  and  _329
REMARK  136  A    between atoms: _328  and  _331
REMARK  137  A    between atoms: _331  and  _332
REMARK  138  A    between atoms: _334  and  _336
REMARK  139  A    between atoms: _336  and  _337
REMARK  140  A    between atoms: _336  and  _339
REMARK                            x       y       z     vdW  Elec       q    Type
REMARK                         _______ _______ _______ _____ _____    ______ ____
ROOT
ATOM      1  O   HOH     1      31.382 -11.938  14.070  0.00  0.00    +0.000 OA
ENDROOT
TORSDOF 0
REMARK  Name = ../refined-set-2016/4g90/4g90_pocket.pdb
REMARK  140 active torsions:
REMARK  status: ('A' for Active; 'I' for Inactive)
REMARK    1  A    between atoms: _1  and  _3
REMARK    2  A    between atoms: _3  and  _4
REMARK    3  A    between atoms: _3  and  _6
REMARK    4  A    between atoms: _6  and  _7
REMARK    5  A    between atoms: _7  and  _8
REMARK    6  A    between atoms: _11  and  _13
REMARK    7  A    between atoms: _13  and  _14
REMARK    8  A    between atoms: _17  and  _19
REMARK    9  A    between atoms: _19  and  _20
REMARK   10  A    between atoms: _19  and  _22
REMARK   11  A    between atoms: _22  and  _23
REMARK   12  A    between atoms: _23  and  _24
REMARK   13  A    between atoms: _24  and  _25
REMARK   14  A    between atoms: _25  and  _26
REMARK   15  A    between atoms: _30  and  _32
REMARK   16  A    between atoms: _32  and  _33
REMARK   17  A    between atoms: _32  and  _35
REMARK   18  A    between atoms: _35  and  _36
REMARK   19  A    between atoms: _42  and  _44
REMARK   20  A    between atoms: _44  and  _45
REMARK   21  A    between atoms: _44  and  _47
REMARK   22  A    between atoms: _47  and  _48
REMARK   23  A    between atoms: _48  and  _49
REMARK   24  A    between atoms: _49  and  _50
REMARK   25  A    between atoms: _59  and  _61
REMARK   26  A    between atoms: _61  and  _62
REMARK   27  A    between atoms: _61  and  _64
REMARK   28  A    between atoms: _64  and  _65
REMARK   29  A    between atoms: _65  and  _66
REMARK   30  A    between atoms: _71  and  _73
REMARK   31  A    between atoms: _73  and  _74
REMARK   32  A    between atoms: _73  and  _76
REMARK   33  A    between atoms: _76  and  _77
REMARK   34  A    between atoms: _82  and  _84
REMARK   35  A    between atoms: _84  and  _85
REMARK   36  A    between atoms: _84  and  _87
REMARK   37  A    between atoms: _87  and  _88
REMARK   38  A    between atoms: _88  and  _89
REMARK   39  A    between atoms: _91  and  _93
REMARK   40  A    between atoms: _93  and  _94
REMARK   41  A    between atoms: _93  and  _96
REMARK   42  A    between atoms: _96  and  _97
REMARK   43  A    between atoms: _100  and  _102
REMARK   44  A    between atoms: _102  and  _103
REMARK   45  A    between atoms: _102  and  _105
REMARK   46  A    between atoms: _105  and  _106
REMARK   47  A    between atoms: _106  and  _107
REMARK   48  A    between atoms: _107  and  _108
REMARK   49  A    between atoms: _117  and  _119
REMARK   50  A    between atoms: _119  and  _120
REMARK   51  A    between atoms: _119  and  _122
REMARK   52  A    between atoms: _122  and  _123
REMARK   53  A    between atoms: _123  and  _124
REMARK   54  A    between atoms: _124  and  _125
REMARK   55  A    between atoms: _125  and  _126
REMARK   56  A    between atoms: _131  and  _132
REMARK   57  A    between atoms: _137  and  _139
REMARK   58  A    between atoms: _139  and  _140
REMARK   59  A    between atoms: _139  and  _142
REMARK   60  A    between atoms: _145  and  _147
REMARK   61  A    between atoms: _147  and  _148
REMARK   62  A    between atoms: _147  and  _150
REMARK   63  A    between atoms: _150  and  _151
REMARK   64  A    between atoms: _156  and  _158
REMARK   65  A    between atoms: _158  and  _159
REMARK   66  A    between atoms: _158  and  _161
REMARK   67  A    between atoms: _161  and  _162
REMARK   68  A    between atoms: _165  and  _167
REMARK   69  A    between atoms: _167  and  _168
REMARK   70  A    between atoms: _167  and  _170
REMARK   71  A    between atoms: _170  and  _171
REMARK   72  A    between atoms: _177  and  _179
REMARK   73  A    between atoms: _179  and  _180
REMARK   74  A    between atoms: _179  and  _182
REMARK   75  A    between atoms: _182  and  _183
REMARK   76  A    between atoms: _183  and  _184
REMARK   77  A    between atoms: _184  and  _185
REMARK   78  A    between atoms: _185  and  _186
REMARK   79  A    between atoms: _190  and  _192
REMARK   80  A    between atoms: _192  and  _193
REMARK   81  A    between atoms: _192  and  _195
REMARK   82  A    between atoms: _195  and  _196
REMARK   83  A    between atoms: _201  and  _203
REMARK   84  A    between atoms: _203  and  _204
REMARK   85  A    between atoms: _203  and  _206
REMARK   86  A    between atoms: _206  and  _207
REMARK   87  A    between atoms: _210  and  _212
REMARK   88  A    between atoms: _212  and  _213
REMARK   89  A    between atoms: _212  and  _215
REMARK   90  A    between atoms: _215  and  _216
REMARK   91  A    between atoms: _219  and  _221
REMARK   92  A    between atoms: _221  and  _222
REMARK   93  A    between atoms: _221  and  _224
REMARK   94  A    between atoms: _224  and  _225
REMARK   95  A    between atoms: _228  and  _230
REMARK   96  A    between atoms: _230  and  _231
REMARK   97  A    between atoms: _230  and  _233
REMARK   98  A    between atoms: _235  and  _237
REMARK   99  A    between atoms: _237  and  _238
REMARK  100  A    between atoms: _237  and  _240
REMARK  101  A    between atoms: _240  and  _241
REMARK  102  A    between atoms: _241  and  _242
REMARK  103  A    between atoms: _242  and  _243
REMARK  104  A    between atoms: _252  and  _254
REMARK  105  A    between atoms: _254  and  _255
REMARK  106  A    between atoms: _254  and  _257
REMARK  107  A    between atoms: _257  and  _258
REMARK  108  A    between atoms: _258  and  _259
REMARK  109  A    between atoms: _259  and  _260
REMARK  110  A    between atoms: _260  and  _261
REMARK  111  A    between atoms: _265  and  _267
REMARK  112  A    between atoms: _267  and  _268
REMARK  113  A    between atoms: _267  and  _270
REMARK  114  A    between atoms: _270  and  _271
REMARK  115  A    between atoms: _274  and  _276
REMARK  116  A    between atoms: _276  and  _277
REMARK  117  A    between atoms: _280  and  _282
REMARK  118  A    between atoms: _282  and  _283
REMARK  119  A    between atoms: _282  and  _285
REMARK  120  A    between atoms: _288  and  _290
REMARK  121  A    between atoms: _290  and  _291
REMARK  122  A    between atoms: _290  and  _293
REMARK  123  A    between atoms: _293  and  _294
REMARK  124  A    between atoms: _299  and  _301
REMARK  125  A    between atoms: _301  and  _302
REMARK  126  A    between atoms: _301  and  _304
REMARK  127  A    between atoms: _304  and  _305
REMARK  128  A    between atoms: _311  and  _313
REMARK  129  A    between atoms: _313  and  _314
REMARK  130  A    between atoms: _313  and  _316
REMARK  131  A    between atoms: _316  and  _317
REMARK  132  A    between atoms: _320  and  _322
REMARK  133  A    between atoms: _322  and  _323
REMARK  134  A    between atoms: _326  and  _328
REMARK  135  A    between atoms: _328  and  _329
REMARK  136  A    between atoms: _328  and  _331
REMARK  137  A    between atoms: _331  and  _332
REMARK  138  A    between atoms: _334  and  _336
REMARK  139  A    between atoms: _336  and  _337
REMARK  140  A    between atoms: _336  and  _339
REMARK                            x       y       z     vdW  Elec       q    Type
REMARK                         _______ _______ _______ _____ _____    ______ ____
ROOT
ATOM      1  O   HOH     1      36.503  10.098  15.550  0.00  0.00    +0.000 OA
ENDROOT
TORSDOF 0
REMARK  Name = ../refined-set-2016/4g90/4g90_pocket.pdb
REMARK  140 active torsions:
REMARK  status: ('A' for Active; 'I' for Inactive)
REMARK    1  A    between atoms: _1  and  _3
REMARK    2  A    between atoms: _3  and  _4
REMARK    3  A    between atoms: _3  and  _6
REMARK    4  A    between atoms: _6  and  _7
REMARK    5  A    between atoms: _7  and  _8
REMARK    6  A    between atoms: _11  and  _13
REMARK    7  A    between atoms: _13  and  _14
REMARK    8  A    between atoms: _17  and  _19
REMARK    9  A    between atoms: _19  and  _20
REMARK   10  A    between atoms: _19  and  _22
REMARK   11  A    between atoms: _22  and  _23
REMARK   12  A    between atoms: _23  and  _24
REMARK   13  A    between atoms: _24  and  _25
REMARK   14  A    between atoms: _25  and  _26
REMARK   15  A    between atoms: _30  and  _32
REMARK   16  A    between atoms: _32  and  _33
REMARK   17  A    between atoms: _32  and  _35
REMARK   18  A    between atoms: _35  and  _36
REMARK   19  A    between atoms: _42  and  _44
REMARK   20  A    between atoms: _44  and  _45
REMARK   21  A    between atoms: _44  and  _47
REMARK   22  A    between atoms: _47  and  _48
REMARK   23  A    between atoms: _48  and  _49
REMARK   24  A    between atoms: _49  and  _50
REMARK   25  A    between atoms: _59  and  _61
REMARK   26  A    between atoms: _61  and  _62
REMARK   27  A    between atoms: _61  and  _64
REMARK   28  A    between atoms: _64  and  _65
REMARK   29  A    between atoms: _65  and  _66
REMARK   30  A    between atoms: _71  and  _73
REMARK   31  A    between atoms: _73  and  _74
REMARK   32  A    between atoms: _73  and  _76
REMARK   33  A    between atoms: _76  and  _77
REMARK   34  A    between atoms: _82  and  _84
REMARK   35  A    between atoms: _84  and  _85
REMARK   36  A    between atoms: _84  and  _87
REMARK   37  A    between atoms: _87  and  _88
REMARK   38  A    between atoms: _88  and  _89
REMARK   39  A    between atoms: _91  and  _93
REMARK   40  A    between atoms: _93  and  _94
REMARK   41  A    between atoms: _93  and  _96
REMARK   42  A    between atoms: _96  and  _97
REMARK   43  A    between atoms: _100  and  _102
REMARK   44  A    between atoms: _102  and  _103
REMARK   45  A    between atoms: _102  and  _105
REMARK   46  A    between atoms: _105  and  _106
REMARK   47  A    between atoms: _106  and  _107
REMARK   48  A    between atoms: _107  and  _108
REMARK   49  A    between atoms: _117  and  _119
REMARK   50  A    between atoms: _119  and  _120
REMARK   51  A    between atoms: _119  and  _122
REMARK   52  A    between atoms: _122  and  _123
REMARK   53  A    between atoms: _123  and  _124
REMARK   54  A    between atoms: _124  and  _125
REMARK   55  A    between atoms: _125  and  _126
REMARK   56  A    between atoms: _131  and  _132
REMARK   57  A    between atoms: _137  and  _139
REMARK   58  A    between atoms: _139  and  _140
REMARK   59  A    between atoms: _139  and  _142
REMARK   60  A    between atoms: _145  and  _147
REMARK   61  A    between atoms: _147  and  _148
REMARK   62  A    between atoms: _147  and  _150
REMARK   63  A    between atoms: _150  and  _151
REMARK   64  A    between atoms: _156  and  _158
REMARK   65  A    between atoms: _158  and  _159
REMARK   66  A    between atoms: _158  and  _161
REMARK   67  A    between atoms: _161  and  _162
REMARK   68  A    between atoms: _165  and  _167
REMARK   69  A    between atoms: _167  and  _168
REMARK   70  A    between atoms: _167  and  _170
REMARK   71  A    between atoms: _170  and  _171
REMARK   72  A    between atoms: _177  and  _179
REMARK   73  A    between atoms: _179  and  _180
REMARK   74  A    between atoms: _179  and  _182
REMARK   75  A    between atoms: _182  and  _183
REMARK   76  A    between atoms: _183  and  _184
REMARK   77  A    between atoms: _184  and  _185
REMARK   78  A    between atoms: _185  and  _186
REMARK   79  A    between atoms: _190  and  _192
REMARK   80  A    between atoms: _192  and  _193
REMARK   81  A    between atoms: _192  and  _195
REMARK   82  A    between atoms: _195  and  _196
REMARK   83  A    between atoms: _201  and  _203
REMARK   84  A    between atoms: _203  and  _204
REMARK   85  A    between atoms: _203  and  _206
REMARK   86  A    between atoms: _206  and  _207
REMARK   87  A    between atoms: _210  and  _212
REMARK   88  A    between atoms: _212  and  _213
REMARK   89  A    between atoms: _212  and  _215
REMARK   90  A    between atoms: _215  and  _216
REMARK   91  A    between atoms: _219  and  _221
REMARK   92  A    between atoms: _221  and  _222
REMARK   93  A    between atoms: _221  and  _224
REMARK   94  A    between atoms: _224  and  _225
REMARK   95  A    between atoms: _228  and  _230
REMARK   96  A    between atoms: _230  and  _231
REMARK   97  A    between atoms: _230  and  _233
REMARK   98  A    between atoms: _235  and  _237
REMARK   99  A    between atoms: _237  and  _238
REMARK  100  A    between atoms: _237  and  _240
REMARK  101  A    between atoms: _240  and  _241
REMARK  102  A    between atoms: _241  and  _242
REMARK  103  A    between atoms: _242  and  _243
REMARK  104  A    between atoms: _252  and  _254
REMARK  105  A    between atoms: _254  and  _255
REMARK  106  A    between atoms: _254  and  _257
REMARK  107  A    between atoms: _257  and  _258
REMARK  108  A    between atoms: _258  and  _259
REMARK  109  A    between atoms: _259  and  _260
REMARK  110  A    between atoms: _260  and  _261
REMARK  111  A    between atoms: _265  and  _267
REMARK  112  A    between atoms: _267  and  _268
REMARK  113  A    between atoms: _267  and  _270
REMARK  114  A    between atoms: _270  and  _271
REMARK  115  A    between atoms: _274  and  _276
REMARK  116  A    between atoms: _276  and  _277
REMARK  117  A    between atoms: _280  and  _282
REMARK  118  A    between atoms: _282  and  _283
REMARK  119  A    between atoms: _282  and  _285
REMARK  120  A    between atoms: _288  and  _290
REMARK  121  A    between atoms: _290  and  _291
REMARK  122  A    between atoms: _290  and  _293
REMARK  123  A    between atoms: _293  and  _294
REMARK  124  A    between atoms: _299  and  _301
REMARK  125  A    between atoms: _301  and  _302
REMARK  126  A    between atoms: _301  and  _304
REMARK  127  A    between atoms: _304  and  _305
REMARK  128  A    between atoms: _311  and  _313
REMARK  129  A    between atoms: _313  and  _314
REMARK  130  A    between atoms: _313  and  _316
REMARK  131  A    between atoms: _316  and  _317
REMARK  132  A    between atoms: _320  and  _322
REMARK  133  A    between atoms: _322  and  _323
REMARK  134  A    between atoms: _326  and  _328
REMARK  135  A    between atoms: _328  and  _329
REMARK  136  A    between atoms: _328  and  _331
REMARK  137  A    between atoms: _331  and  _332
REMARK  138  A    between atoms: _334  and  _336
REMARK  139  A    between atoms: _336  and  _337
REMARK  140  A    between atoms: _336  and  _339
REMARK                            x       y       z     vdW  Elec       q    Type
REMARK                         _______ _______ _______ _____ _____    ______ ____
ROOT
ATOM      1  O   HOH     1      33.672  -9.420  19.269  0.00  0.00    +0.000 OA
ENDROOT
TORSDOF 0
REMARK  Name = ../refined-set-2016/4g90/4g90_pocket.pdb
REMARK  140 active torsions:
REMARK  status: ('A' for Active; 'I' for Inactive)
REMARK    1  A    between atoms: _1  and  _3
REMARK    2  A    between atoms: _3  and  _4
REMARK    3  A    between atoms: _3  and  _6
REMARK    4  A    between atoms: _6  and  _7
REMARK    5  A    between atoms: _7  and  _8
REMARK    6  A    between atoms: _11  and  _13
REMARK    7  A    between atoms: _13  and  _14
REMARK    8  A    between atoms: _17  and  _19
REMARK    9  A    between atoms: _19  and  _20
REMARK   10  A    between atoms: _19  and  _22
REMARK   11  A    between atoms: _22  and  _23
REMARK   12  A    between atoms: _23  and  _24
REMARK   13  A    between atoms: _24  and  _25
REMARK   14  A    between atoms: _25  and  _26
REMARK   15  A    between atoms: _30  and  _32
REMARK   16  A    between atoms: _32  and  _33
REMARK   17  A    between atoms: _32  and  _35
REMARK   18  A    between atoms: _35  and  _36
REMARK   19  A    between atoms: _42  and  _44
REMARK   20  A    between atoms: _44  and  _45
REMARK   21  A    between atoms: _44  and  _47
REMARK   22  A    between atoms: _47  and  _48
REMARK   23  A    between atoms: _48  and  _49
REMARK   24  A    between atoms: _49  and  _50
REMARK   25  A    between atoms: _59  and  _61
REMARK   26  A    between atoms: _61  and  _62
REMARK   27  A    between atoms: _61  and  _64
REMARK   28  A    between atoms: _64  and  _65
REMARK   29  A    between atoms: _65  and  _66
REMARK   30  A    between atoms: _71  and  _73
REMARK   31  A    between atoms: _73  and  _74
REMARK   32  A    between atoms: _73  and  _76
REMARK   33  A    between atoms: _76  and  _77
REMARK   34  A    between atoms: _82  and  _84
REMARK   35  A    between atoms: _84  and  _85
REMARK   36  A    between atoms: _84  and  _87
REMARK   37  A    between atoms: _87  and  _88
REMARK   38  A    between atoms: _88  and  _89
REMARK   39  A    between atoms: _91  and  _93
REMARK   40  A    between atoms: _93  and  _94
REMARK   41  A    between atoms: _93  and  _96
REMARK   42  A    between atoms: _96  and  _97
REMARK   43  A    between atoms: _100  and  _102
REMARK   44  A    between atoms: _102  and  _103
REMARK   45  A    between atoms: _102  and  _105
REMARK   46  A    between atoms: _105  and  _106
REMARK   47  A    between atoms: _106  and  _107
REMARK   48  A    between atoms: _107  and  _108
REMARK   49  A    between atoms: _117  and  _119
REMARK   50  A    between atoms: _119  and  _120
REMARK   51  A    between atoms: _119  and  _122
REMARK   52  A    between atoms: _122  and  _123
REMARK   53  A    between atoms: _123  and  _124
REMARK   54  A    between atoms: _124  and  _125
REMARK   55  A    between atoms: _125  and  _126
REMARK   56  A    between atoms: _131  and  _132
REMARK   57  A    between atoms: _137  and  _139
REMARK   58  A    between atoms: _139  and  _140
REMARK   59  A    between atoms: _139  and  _142
REMARK   60  A    between atoms: _145  and  _147
REMARK   61  A    between atoms: _147  and  _148
REMARK   62  A    between atoms: _147  and  _150
REMARK   63  A    between atoms: _150  and  _151
REMARK   64  A    between atoms: _156  and  _158
REMARK   65  A    between atoms: _158  and  _159
REMARK   66  A    between atoms: _158  and  _161
REMARK   67  A    between atoms: _161  and  _162
REMARK   68  A    between atoms: _165  and  _167
REMARK   69  A    between atoms: _167  and  _168
REMARK   70  A    between atoms: _167  and  _170
REMARK   71  A    between atoms: _170  and  _171
REMARK   72  A    between atoms: _177  and  _179
REMARK   73  A    between atoms: _179  and  _180
REMARK   74  A    between atoms: _179  and  _182
REMARK   75  A    between atoms: _182  and  _183
REMARK   76  A    between atoms: _183  and  _184
REMARK   77  A    between atoms: _184  and  _185
REMARK   78  A    between atoms: _185  and  _186
REMARK   79  A    between atoms: _190  and  _192
REMARK   80  A    between atoms: _192  and  _193
REMARK   81  A    between atoms: _192  and  _195
REMARK   82  A    between atoms: _195  and  _196
REMARK   83  A    between atoms: _201  and  _203
REMARK   84  A    between atoms: _203  and  _204
REMARK   85  A    between atoms: _203  and  _206
REMARK   86  A    between atoms: _206  and  _207
REMARK   87  A    between atoms: _210  and  _212
REMARK   88  A    between atoms: _212  and  _213
REMARK   89  A    between atoms: _212  and  _215
REMARK   90  A    between atoms: _215  and  _216
REMARK   91  A    between atoms: _219  and  _221
REMARK   92  A    between atoms: _221  and  _222
REMARK   93  A    between atoms: _221  and  _224
REMARK   94  A    between atoms: _224  and  _225
REMARK   95  A    between atoms: _228  and  _230
REMARK   96  A    between atoms: _230  and  _231
REMARK   97  A    between atoms: _230  and  _233
REMARK   98  A    between atoms: _235  and  _237
REMARK   99  A    between atoms: _237  and  _238
REMARK  100  A    between atoms: _237  and  _240
REMARK  101  A    between atoms: _240  and  _241
REMARK  102  A    between atoms: _241  and  _242
REMARK  103  A    between atoms: _242  and  _243
REMARK  104  A    between atoms: _252  and  _254
REMARK  105  A    between atoms: _254  and  _255
REMARK  106  A    between atoms: _254  and  _257
REMARK  107  A    between atoms: _257  and  _258
REMARK  108  A    between atoms: _258  and  _259
REMARK  109  A    between atoms: _259  and  _260
REMARK  110  A    between atoms: _260  and  _261
REMARK  111  A    between atoms: _265  and  _267
REMARK  112  A    between atoms: _267  and  _268
REMARK  113  A    between atoms: _267  and  _270
REMARK  114  A    between atoms: _270  and  _271
REMARK  115  A    between atoms: _274  and  _276
REMARK  116  A    between atoms: _276  and  _277
REMARK  117  A    between atoms: _280  and  _282
REMARK  118  A    between atoms: _282  and  _283
REMARK  119  A    between atoms: _282  and  _285
REMARK  120  A    between atoms: _288  and  _290
REMARK  121  A    between atoms: _290  and  _291
REMARK  122  A    between atoms: _290  and  _293
REMARK  123  A    between atoms: _293  and  _294
REMARK  124  A    between atoms: _299  and  _301
REMARK  125  A    between atoms: _301  and  _302
REMARK  126  A    between atoms: _301  and  _304
REMARK  127  A    between atoms: _304  and  _305
REMARK  128  A    between atoms: _311  and  _313
REMARK  129  A    between atoms: _313  and  _314
REMARK  130  A    between atoms: _313  and  _316
REMARK  131  A    between atoms: _316  and  _317
REMARK  132  A    between atoms: _320  and  _322
REMARK  133  A    between atoms: _322  and  _323
REMARK  134  A    between atoms: _326  and  _328
REMARK  135  A    between atoms: _328  and  _329
REMARK  136  A    between atoms: _328  and  _331
REMARK  137  A    between atoms: _331  and  _332
REMARK  138  A    between atoms: _334  and  _336
REMARK  139  A    between atoms: _336  and  _337
REMARK  140  A    between atoms: _336  and  _339
REMARK                            x       y       z     vdW  Elec       q    Type
REMARK                         _______ _______ _______ _____ _____    ______ ____
ROOT
ATOM      1  O   HOH     1      36.245   1.982  21.377  0.00  0.00    +0.000 OA
ENDROOT
TORSDOF 0
REMARK  Name = ../refined-set-2016/4g90/4g90_pocket.pdb
REMARK  140 active torsions:
REMARK  status: ('A' for Active; 'I' for Inactive)
REMARK    1  A    between atoms: _1  and  _3
REMARK    2  A    between atoms: _3  and  _4
REMARK    3  A    between atoms: _3  and  _6
REMARK    4  A    between atoms: _6  and  _7
REMARK    5  A    between atoms: _7  and  _8
REMARK    6  A    between atoms: _11  and  _13
REMARK    7  A    between atoms: _13  and  _14
REMARK    8  A    between atoms: _17  and  _19
REMARK    9  A    between atoms: _19  and  _20
REMARK   10  A    between atoms: _19  and  _22
REMARK   11  A    between atoms: _22  and  _23
REMARK   12  A    between atoms: _23  and  _24
REMARK   13  A    between atoms: _24  and  _25
REMARK   14  A    between atoms: _25  and  _26
REMARK   15  A    between atoms: _30  and  _32
REMARK   16  A    between atoms: _32  and  _33
REMARK   17  A    between atoms: _32  and  _35
REMARK   18  A    between atoms: _35  and  _36
REMARK   19  A    between atoms: _42  and  _44
REMARK   20  A    between atoms: _44  and  _45
REMARK   21  A    between atoms: _44  and  _47
REMARK   22  A    between atoms: _47  and  _48
REMARK   23  A    between atoms: _48  and  _49
REMARK   24  A    between atoms: _49  and  _50
REMARK   25  A    between atoms: _59  and  _61
REMARK   26  A    between atoms: _61  and  _62
REMARK   27  A    between atoms: _61  and  _64
REMARK   28  A    between atoms: _64  and  _65
REMARK   29  A    between atoms: _65  and  _66
REMARK   30  A    between atoms: _71  and  _73
REMARK   31  A    between atoms: _73  and  _74
REMARK   32  A    between atoms: _73  and  _76
REMARK   33  A    between atoms: _76  and  _77
REMARK   34  A    between atoms: _82  and  _84
REMARK   35  A    between atoms: _84  and  _85
REMARK   36  A    between atoms: _84  and  _87
REMARK   37  A    between atoms: _87  and  _88
REMARK   38  A    between atoms: _88  and  _89
REMARK   39  A    between atoms: _91  and  _93
REMARK   40  A    between atoms: _93  and  _94
REMARK   41  A    between atoms: _93  and  _96
REMARK   42  A    between atoms: _96  and  _97
REMARK   43  A    between atoms: _100  and  _102
REMARK   44  A    between atoms: _102  and  _103
REMARK   45  A    between atoms: _102  and  _105
REMARK   46  A    between atoms: _105  and  _106
REMARK   47  A    between atoms: _106  and  _107
REMARK   48  A    between atoms: _107  and  _108
REMARK   49  A    between atoms: _117  and  _119
REMARK   50  A    between atoms: _119  and  _120
REMARK   51  A    between atoms: _119  and  _122
REMARK   52  A    between atoms: _122  and  _123
REMARK   53  A    between atoms: _123  and  _124
REMARK   54  A    between atoms: _124  and  _125
REMARK   55  A    between atoms: _125  and  _126
REMARK   56  A    between atoms: _131  and  _132
REMARK   57  A    between atoms: _137  and  _139
REMARK   58  A    between atoms: _139  and  _140
REMARK   59  A    between atoms: _139  and  _142
REMARK   60  A    between atoms: _145  and  _147
REMARK   61  A    between atoms: _147  and  _148
REMARK   62  A    between atoms: _147  and  _150
REMARK   63  A    between atoms: _150  and  _151
REMARK   64  A    between atoms: _156  and  _158
REMARK   65  A    between atoms: _158  and  _159
REMARK   66  A    between atoms: _158  and  _161
REMARK   67  A    between atoms: _161  and  _162
REMARK   68  A    between atoms: _165  and  _167
REMARK   69  A    between atoms: _167  and  _168
REMARK   70  A    between atoms: _167  and  _170
REMARK   71  A    between atoms: _170  and  _171
REMARK   72  A    between atoms: _177  and  _179
REMARK   73  A    between atoms: _179  and  _180
REMARK   74  A    between atoms: _179  and  _182
REMARK   75  A    between atoms: _182  and  _183
REMARK   76  A    between atoms: _183  and  _184
REMARK   77  A    between atoms: _184  and  _185
REMARK   78  A    between atoms: _185  and  _186
REMARK   79  A    between atoms: _190  and  _192
REMARK   80  A    between atoms: _192  and  _193
REMARK   81  A    between atoms: _192  and  _195
REMARK   82  A    between atoms: _195  and  _196
REMARK   83  A    between atoms: _201  and  _203
REMARK   84  A    between atoms: _203  and  _204
REMARK   85  A    between atoms: _203  and  _206
REMARK   86  A    between atoms: _206  and  _207
REMARK   87  A    between atoms: _210  and  _212
REMARK   88  A    between atoms: _212  and  _213
REMARK   89  A    between atoms: _212  and  _215
REMARK   90  A    between atoms: _215  and  _216
REMARK   91  A    between atoms: _219  and  _221
REMARK   92  A    between atoms: _221  and  _222
REMARK   93  A    between atoms: _221  and  _224
REMARK   94  A    between atoms: _224  and  _225
REMARK   95  A    between atoms: _228  and  _230
REMARK   96  A    between atoms: _230  and  _231
REMARK   97  A    between atoms: _230  and  _233
REMARK   98  A    between atoms: _235  and  _237
REMARK   99  A    between atoms: _237  and  _238
REMARK  100  A    between atoms: _237  and  _240
REMARK  101  A    between atoms: _240  and  _241
REMARK  102  A    between atoms: _241  and  _242
REMARK  103  A    between atoms: _242  and  _243
REMARK  104  A    between atoms: _252  and  _254
REMARK  105  A    between atoms: _254  and  _255
REMARK  106  A    between atoms: _254  and  _257
REMARK  107  A    between atoms: _257  and  _258
REMARK  108  A    between atoms: _258  and  _259
REMARK  109  A    between atoms: _259  and  _260
REMARK  110  A    between atoms: _260  and  _261
REMARK  111  A    between atoms: _265  and  _267
REMARK  112  A    between atoms: _267  and  _268
REMARK  113  A    between atoms: _267  and  _270
REMARK  114  A    between atoms: _270  and  _271
REMARK  115  A    between atoms: _274  and  _276
REMARK  116  A    between atoms: _276  and  _277
REMARK  117  A    between atoms: _280  and  _282
REMARK  118  A    between atoms: _282  and  _283
REMARK  119  A    between atoms: _282  and  _285
REMARK  120  A    between atoms: _288  and  _290
REMARK  121  A    between atoms: _290  and  _291
REMARK  122  A    between atoms: _290  and  _293
REMARK  123  A    between atoms: _293  and  _294
REMARK  124  A    between atoms: _299  and  _301
REMARK  125  A    between atoms: _301  and  _302
REMARK  126  A    between atoms: _301  and  _304
REMARK  127  A    between atoms: _304  and  _305
REMARK  128  A    between atoms: _311  and  _313
REMARK  129  A    between atoms: _313  and  _314
REMARK  130  A    between atoms: _313  and  _316
REMARK  131  A    between atoms: _316  and  _317
REMARK  132  A    between atoms: _320  and  _322
REMARK  133  A    between atoms: _322  and  _323
REMARK  134  A    between atoms: _326  and  _328
REMARK  135  A    between atoms: _328  and  _329
REMARK  136  A    between atoms: _328  and  _331
REMARK  137  A    between atoms: _331  and  _332
REMARK  138  A    between atoms: _334  and  _336
REMARK  139  A    between atoms: _336  and  _337
REMARK  140  A    between atoms: _336  and  _339
REMARK                            x       y       z     vdW  Elec       q    Type
REMARK                         _______ _______ _______ _____ _____    ______ ____
ROOT
ATOM      1  O   HOH     1      39.421  -0.573  19.970  0.00  0.00    +0.000 OA
ENDROOT
TORSDOF 0
REMARK  Name = ../refined-set-2016/4g90/4g90_pocket.pdb
REMARK  140 active torsions:
REMARK  status: ('A' for Active; 'I' for Inactive)
REMARK    1  A    between atoms: _1  and  _3
REMARK    2  A    between atoms: _3  and  _4
REMARK    3  A    between atoms: _3  and  _6
REMARK    4  A    between atoms: _6  and  _7
REMARK    5  A    between atoms: _7  and  _8
REMARK    6  A    between atoms: _11  and  _13
REMARK    7  A    between atoms: _13  and  _14
REMARK    8  A    between atoms: _17  and  _19
REMARK    9  A    between atoms: _19  and  _20
REMARK   10  A    between atoms: _19  and  _22
REMARK   11  A    between atoms: _22  and  _23
REMARK   12  A    between atoms: _23  and  _24
REMARK   13  A    between atoms: _24  and  _25
REMARK   14  A    between atoms: _25  and  _26
REMARK   15  A    between atoms: _30  and  _32
REMARK   16  A    between atoms: _32  and  _33
REMARK   17  A    between atoms: _32  and  _35
REMARK   18  A    between atoms: _35  and  _36
REMARK   19  A    between atoms: _42  and  _44
REMARK   20  A    between atoms: _44  and  _45
REMARK   21  A    between atoms: _44  and  _47
REMARK   22  A    between atoms: _47  and  _48
REMARK   23  A    between atoms: _48  and  _49
REMARK   24  A    between atoms: _49  and  _50
REMARK   25  A    between atoms: _59  and  _61
REMARK   26  A    between atoms: _61  and  _62
REMARK   27  A    between atoms: _61  and  _64
REMARK   28  A    between atoms: _64  and  _65
REMARK   29  A    between atoms: _65  and  _66
REMARK   30  A    between atoms: _71  and  _73
REMARK   31  A    between atoms: _73  and  _74
REMARK   32  A    between atoms: _73  and  _76
REMARK   33  A    between atoms: _76  and  _77
REMARK   34  A    between atoms: _82  and  _84
REMARK   35  A    between atoms: _84  and  _85
REMARK   36  A    between atoms: _84  and  _87
REMARK   37  A    between atoms: _87  and  _88
REMARK   38  A    between atoms: _88  and  _89
REMARK   39  A    between atoms: _91  and  _93
REMARK   40  A    between atoms: _93  and  _94
REMARK   41  A    between atoms: _93  and  _96
REMARK   42  A    between atoms: _96  and  _97
REMARK   43  A    between atoms: _100  and  _102
REMARK   44  A    between atoms: _102  and  _103
REMARK   45  A    between atoms: _102  and  _105
REMARK   46  A    between atoms: _105  and  _106
REMARK   47  A    between atoms: _106  and  _107
REMARK   48  A    between atoms: _107  and  _108
REMARK   49  A    between atoms: _117  and  _119
REMARK   50  A    between atoms: _119  and  _120
REMARK   51  A    between atoms: _119  and  _122
REMARK   52  A    between atoms: _122  and  _123
REMARK   53  A    between atoms: _123  and  _124
REMARK   54  A    between atoms: _124  and  _125
REMARK   55  A    between atoms: _125  and  _126
REMARK   56  A    between atoms: _131  and  _132
REMARK   57  A    between atoms: _137  and  _139
REMARK   58  A    between atoms: _139  and  _140
REMARK   59  A    between atoms: _139  and  _142
REMARK   60  A    between atoms: _145  and  _147
REMARK   61  A    between atoms: _147  and  _148
REMARK   62  A    between atoms: _147  and  _150
REMARK   63  A    between atoms: _150  and  _151
REMARK   64  A    between atoms: _156  and  _158
REMARK   65  A    between atoms: _158  and  _159
REMARK   66  A    between atoms: _158  and  _161
REMARK   67  A    between atoms: _161  and  _162
REMARK   68  A    between atoms: _165  and  _167
REMARK   69  A    between atoms: _167  and  _168
REMARK   70  A    between atoms: _167  and  _170
REMARK   71  A    between atoms: _170  and  _171
REMARK   72  A    between atoms: _177  and  _179
REMARK   73  A    between atoms: _179  and  _180
REMARK   74  A    between atoms: _179  and  _182
REMARK   75  A    between atoms: _182  and  _183
REMARK   76  A    between atoms: _183  and  _184
REMARK   77  A    between atoms: _184  and  _185
REMARK   78  A    between atoms: _185  and  _186
REMARK   79  A    between atoms: _190  and  _192
REMARK   80  A    between atoms: _192  and  _193
REMARK   81  A    between atoms: _192  and  _195
REMARK   82  A    between atoms: _195  and  _196
REMARK   83  A    between atoms: _201  and  _203
REMARK   84  A    between atoms: _203  and  _204
REMARK   85  A    between atoms: _203  and  _206
REMARK   86  A    between atoms: _206  and  _207
REMARK   87  A    between atoms: _210  and  _212
REMARK   88  A    between atoms: _212  and  _213
REMARK   89  A    between atoms: _212  and  _215
REMARK   90  A    between atoms: _215  and  _216
REMARK   91  A    between atoms: _219  and  _221
REMARK   92  A    between atoms: _221  and  _222
REMARK   93  A    between atoms: _221  and  _224
REMARK   94  A    between atoms: _224  and  _225
REMARK   95  A    between atoms: _228  and  _230
REMARK   96  A    between atoms: _230  and  _231
REMARK   97  A    between atoms: _230  and  _233
REMARK   98  A    between atoms: _235  and  _237
REMARK   99  A    between atoms: _237  and  _238
REMARK  100  A    between atoms: _237  and  _240
REMARK  101  A    between atoms: _240  and  _241
REMARK  102  A    between atoms: _241  and  _242
REMARK  103  A    between atoms: _242  and  _243
REMARK  104  A    between atoms: _252  and  _254
REMARK  105  A    between atoms: _254  and  _255
REMARK  106  A    between atoms: _254  and  _257
REMARK  107  A    between atoms: _257  and  _258
REMARK  108  A    between atoms: _258  and  _259
REMARK  109  A    between atoms: _259  and  _260
REMARK  110  A    between atoms: _260  and  _261
REMARK  111  A    between atoms: _265  and  _267
REMARK  112  A    between atoms: _267  and  _268
REMARK  113  A    between atoms: _267  and  _270
REMARK  114  A    between atoms: _270  and  _271
REMARK  115  A    between atoms: _274  and  _276
REMARK  116  A    between atoms: _276  and  _277
REMARK  117  A    between atoms: _280  and  _282
REMARK  118  A    between atoms: _282  and  _283
REMARK  119  A    between atoms: _282  and  _285
REMARK  120  A    between atoms: _288  and  _290
REMARK  121  A    between atoms: _290  and  _291
REMARK  122  A    between atoms: _290  and  _293
REMARK  123  A    between atoms: _293  and  _294
REMARK  124  A    between atoms: _299  and  _301
REMARK  125  A    between atoms: _301  and  _302
REMARK  126  A    between atoms: _301  and  _304
REMARK  127  A    between atoms: _304  and  _305
REMARK  128  A    between atoms: _311  and  _313
REMARK  129  A    between atoms: _313  and  _314
REMARK  130  A    between atoms: _313  and  _316
REMARK  131  A    between atoms: _316  and  _317
REMARK  132  A    between atoms: _320  and  _322
REMARK  133  A    between atoms: _322  and  _323
REMARK  134  A    between atoms: _326  and  _328
REMARK  135  A    between atoms: _328  and  _329
REMARK  136  A    between atoms: _328  and  _331
REMARK  137  A    between atoms: _331  and  _332
REMARK  138  A    between atoms: _334  and  _336
REMARK  139  A    between atoms: _336  and  _337
REMARK  140  A    between atoms: _336  and  _339
REMARK                            x       y       z     vdW  Elec       q    Type
REMARK                         _______ _______ _______ _____ _____    ______ ____
ROOT
ATOM      1  O   HOH     1      36.078  10.127  17.884  0.00  0.00    +0.000 OA
ENDROOT
TORSDOF 0
REMARK  Name = ../refined-set-2016/4g90/4g90_pocket.pdb
REMARK  140 active torsions:
REMARK  status: ('A' for Active; 'I' for Inactive)
REMARK    1  A    between atoms: _1  and  _3
REMARK    2  A    between atoms: _3  and  _4
REMARK    3  A    between atoms: _3  and  _6
REMARK    4  A    between atoms: _6  and  _7
REMARK    5  A    between atoms: _7  and  _8
REMARK    6  A    between atoms: _11  and  _13
REMARK    7  A    between atoms: _13  and  _14
REMARK    8  A    between atoms: _17  and  _19
REMARK    9  A    between atoms: _19  and  _20
REMARK   10  A    between atoms: _19  and  _22
REMARK   11  A    between atoms: _22  and  _23
REMARK   12  A    between atoms: _23  and  _24
REMARK   13  A    between atoms: _24  and  _25
REMARK   14  A    between atoms: _25  and  _26
REMARK   15  A    between atoms: _30  and  _32
REMARK   16  A    between atoms: _32  and  _33
REMARK   17  A    between atoms: _32  and  _35
REMARK   18  A    between atoms: _35  and  _36
REMARK   19  A    between atoms: _42  and  _44
REMARK   20  A    between atoms: _44  and  _45
REMARK   21  A    between atoms: _44  and  _47
REMARK   22  A    between atoms: _47  and  _48
REMARK   23  A    between atoms: _48  and  _49
REMARK   24  A    between atoms: _49  and  _50
REMARK   25  A    between atoms: _59  and  _61
REMARK   26  A    between atoms: _61  and  _62
REMARK   27  A    between atoms: _61  and  _64
REMARK   28  A    between atoms: _64  and  _65
REMARK   29  A    between atoms: _65  and  _66
REMARK   30  A    between atoms: _71  and  _73
REMARK   31  A    between atoms: _73  and  _74
REMARK   32  A    between atoms: _73  and  _76
REMARK   33  A    between atoms: _76  and  _77
REMARK   34  A    between atoms: _82  and  _84
REMARK   35  A    between atoms: _84  and  _85
REMARK   36  A    between atoms: _84  and  _87
REMARK   37  A    between atoms: _87  and  _88
REMARK   38  A    between atoms: _88  and  _89
REMARK   39  A    between atoms: _91  and  _93
REMARK   40  A    between atoms: _93  and  _94
REMARK   41  A    between atoms: _93  and  _96
REMARK   42  A    between atoms: _96  and  _97
REMARK   43  A    between atoms: _100  and  _102
REMARK   44  A    between atoms: _102  and  _103
REMARK   45  A    between atoms: _102  and  _105
REMARK   46  A    between atoms: _105  and  _106
REMARK   47  A    between atoms: _106  and  _107
REMARK   48  A    between atoms: _107  and  _108
REMARK   49  A    between atoms: _117  and  _119
REMARK   50  A    between atoms: _119  and  _120
REMARK   51  A    between atoms: _119  and  _122
REMARK   52  A    between atoms: _122  and  _123
REMARK   53  A    between atoms: _123  and  _124
REMARK   54  A    between atoms: _124  and  _125
REMARK   55  A    between atoms: _125  and  _126
REMARK   56  A    between atoms: _131  and  _132
REMARK   57  A    between atoms: _137  and  _139
REMARK   58  A    between atoms: _139  and  _140
REMARK   59  A    between atoms: _139  and  _142
REMARK   60  A    between atoms: _145  and  _147
REMARK   61  A    between atoms: _147  and  _148
REMARK   62  A    between atoms: _147  and  _150
REMARK   63  A    between atoms: _150  and  _151
REMARK   64  A    between atoms: _156  and  _158
REMARK   65  A    between atoms: _158  and  _159
REMARK   66  A    between atoms: _158  and  _161
REMARK   67  A    between atoms: _161  and  _162
REMARK   68  A    between atoms: _165  and  _167
REMARK   69  A    between atoms: _167  and  _168
REMARK   70  A    between atoms: _167  and  _170
REMARK   71  A    between atoms: _170  and  _171
REMARK   72  A    between atoms: _177  and  _179
REMARK   73  A    between atoms: _179  and  _180
REMARK   74  A    between atoms: _179  and  _182
REMARK   75  A    between atoms: _182  and  _183
REMARK   76  A    between atoms: _183  and  _184
REMARK   77  A    between atoms: _184  and  _185
REMARK   78  A    between atoms: _185  and  _186
REMARK   79  A    between atoms: _190  and  _192
REMARK   80  A    between atoms: _192  and  _193
REMARK   81  A    between atoms: _192  and  _195
REMARK   82  A    between atoms: _195  and  _196
REMARK   83  A    between atoms: _201  and  _203
REMARK   84  A    between atoms: _203  and  _204
REMARK   85  A    between atoms: _203  and  _206
REMARK   86  A    between atoms: _206  and  _207
REMARK   87  A    between atoms: _210  and  _212
REMARK   88  A    between atoms: _212  and  _213
REMARK   89  A    between atoms: _212  and  _215
REMARK   90  A    between atoms: _215  and  _216
REMARK   91  A    between atoms: _219  and  _221
REMARK   92  A    between atoms: _221  and  _222
REMARK   93  A    between atoms: _221  and  _224
REMARK   94  A    between atoms: _224  and  _225
REMARK   95  A    between atoms: _228  and  _230
REMARK   96  A    between atoms: _230  and  _231
REMARK   97  A    between atoms: _230  and  _233
REMARK   98  A    between atoms: _235  and  _237
REMARK   99  A    between atoms: _237  and  _238
REMARK  100  A    between atoms: _237  and  _240
REMARK  101  A    between atoms: _240  and  _241
REMARK  102  A    between atoms: _241  and  _242
REMARK  103  A    between atoms: _242  and  _243
REMARK  104  A    between atoms: _252  and  _254
REMARK  105  A    between atoms: _254  and  _255
REMARK  106  A    between atoms: _254  and  _257
REMARK  107  A    between atoms: _257  and  _258
REMARK  108  A    between atoms: _258  and  _259
REMARK  109  A    between atoms: _259  and  _260
REMARK  110  A    between atoms: _260  and  _261
REMARK  111  A    between atoms: _265  and  _267
REMARK  112  A    between atoms: _267  and  _268
REMARK  113  A    between atoms: _267  and  _270
REMARK  114  A    between atoms: _270  and  _271
REMARK  115  A    between atoms: _274  and  _276
REMARK  116  A    between atoms: _276  and  _277
REMARK  117  A    between atoms: _280  and  _282
REMARK  118  A    between atoms: _282  and  _283
REMARK  119  A    between atoms: _282  and  _285
REMARK  120  A    between atoms: _288  and  _290
REMARK  121  A    between atoms: _290  and  _291
REMARK  122  A    between atoms: _290  and  _293
REMARK  123  A    between atoms: _293  and  _294
REMARK  124  A    between atoms: _299  and  _301
REMARK  125  A    between atoms: _301  and  _302
REMARK  126  A    between atoms: _301  and  _304
REMARK  127  A    between atoms: _304  and  _305
REMARK  128  A    between atoms: _311  and  _313
REMARK  129  A    between atoms: _313  and  _314
REMARK  130  A    between atoms: _313  and  _316
REMARK  131  A    between atoms: _316  and  _317
REMARK  132  A    between atoms: _320  and  _322
REMARK  133  A    between atoms: _322  and  _323
REMARK  134  A    between atoms: _326  and  _328
REMARK  135  A    between atoms: _328  and  _329
REMARK  136  A    between atoms: _328  and  _331
REMARK  137  A    between atoms: _331  and  _332
REMARK  138  A    between atoms: _334  and  _336
REMARK  139  A    between atoms: _336  and  _337
REMARK  140  A    between atoms: _336  and  _339
REMARK                            x       y       z     vdW  Elec       q    Type
REMARK                         _______ _______ _______ _____ _____    ______ ____
ROOT
ATOM      1  O   HOH     1      40.896   5.815   7.196  0.00  0.00    +0.000 OA
ENDROOT
TORSDOF 0
REMARK  Name = ../refined-set-2016/4g90/4g90_pocket.pdb
REMARK  140 active torsions:
REMARK  status: ('A' for Active; 'I' for Inactive)
REMARK    1  A    between atoms: _1  and  _3
REMARK    2  A    between atoms: _3  and  _4
REMARK    3  A    between atoms: _3  and  _6
REMARK    4  A    between atoms: _6  and  _7
REMARK    5  A    between atoms: _7  and  _8
REMARK    6  A    between atoms: _11  and  _13
REMARK    7  A    between atoms: _13  and  _14
REMARK    8  A    between atoms: _17  and  _19
REMARK    9  A    between atoms: _19  and  _20
REMARK   10  A    between atoms: _19  and  _22
REMARK   11  A    between atoms: _22  and  _23
REMARK   12  A    between atoms: _23  and  _24
REMARK   13  A    between atoms: _24  and  _25
REMARK   14  A    between atoms: _25  and  _26
REMARK   15  A    between atoms: _30  and  _32
REMARK   16  A    between atoms: _32  and  _33
REMARK   17  A    between atoms: _32  and  _35
REMARK   18  A    between atoms: _35  and  _36
REMARK   19  A    between atoms: _42  and  _44
REMARK   20  A    between atoms: _44  and  _45
REMARK   21  A    between atoms: _44  and  _47
REMARK   22  A    between atoms: _47  and  _48
REMARK   23  A    between atoms: _48  and  _49
REMARK   24  A    between atoms: _49  and  _50
REMARK   25  A    between atoms: _59  and  _61
REMARK   26  A    between atoms: _61  and  _62
REMARK   27  A    between atoms: _61  and  _64
REMARK   28  A    between atoms: _64  and  _65
REMARK   29  A    between atoms: _65  and  _66
REMARK   30  A    between atoms: _71  and  _73
REMARK   31  A    between atoms: _73  and  _74
REMARK   32  A    between atoms: _73  and  _76
REMARK   33  A    between atoms: _76  and  _77
REMARK   34  A    between atoms: _82  and  _84
REMARK   35  A    between atoms: _84  and  _85
REMARK   36  A    between atoms: _84  and  _87
REMARK   37  A    between atoms: _87  and  _88
REMARK   38  A    between atoms: _88  and  _89
REMARK   39  A    between atoms: _91  and  _93
REMARK   40  A    between atoms: _93  and  _94
REMARK   41  A    between atoms: _93  and  _96
REMARK   42  A    between atoms: _96  and  _97
REMARK   43  A    between atoms: _100  and  _102
REMARK   44  A    between atoms: _102  and  _103
REMARK   45  A    between atoms: _102  and  _105
REMARK   46  A    between atoms: _105  and  _106
REMARK   47  A    between atoms: _106  and  _107
REMARK   48  A    between atoms: _107  and  _108
REMARK   49  A    between atoms: _117  and  _119
REMARK   50  A    between atoms: _119  and  _120
REMARK   51  A    between atoms: _119  and  _122
REMARK   52  A    between atoms: _122  and  _123
REMARK   53  A    between atoms: _123  and  _124
REMARK   54  A    between atoms: _124  and  _125
REMARK   55  A    between atoms: _125  and  _126
REMARK   56  A    between atoms: _131  and  _132
REMARK   57  A    between atoms: _137  and  _139
REMARK   58  A    between atoms: _139  and  _140
REMARK   59  A    between atoms: _139  and  _142
REMARK   60  A    between atoms: _145  and  _147
REMARK   61  A    between atoms: _147  and  _148
REMARK   62  A    between atoms: _147  and  _150
REMARK   63  A    between atoms: _150  and  _151
REMARK   64  A    between atoms: _156  and  _158
REMARK   65  A    between atoms: _158  and  _159
REMARK   66  A    between atoms: _158  and  _161
REMARK   67  A    between atoms: _161  and  _162
REMARK   68  A    between atoms: _165  and  _167
REMARK   69  A    between atoms: _167  and  _168
REMARK   70  A    between atoms: _167  and  _170
REMARK   71  A    between atoms: _170  and  _171
REMARK   72  A    between atoms: _177  and  _179
REMARK   73  A    between atoms: _179  and  _180
REMARK   74  A    between atoms: _179  and  _182
REMARK   75  A    between atoms: _182  and  _183
REMARK   76  A    between atoms: _183  and  _184
REMARK   77  A    between atoms: _184  and  _185
REMARK   78  A    between atoms: _185  and  _186
REMARK   79  A    between atoms: _190  and  _192
REMARK   80  A    between atoms: _192  and  _193
REMARK   81  A    between atoms: _192  and  _195
REMARK   82  A    between atoms: _195  and  _196
REMARK   83  A    between atoms: _201  and  _203
REMARK   84  A    between atoms: _203  and  _204
REMARK   85  A    between atoms: _203  and  _206
REMARK   86  A    between atoms: _206  and  _207
REMARK   87  A    between atoms: _210  and  _212
REMARK   88  A    between atoms: _212  and  _213
REMARK   89  A    between atoms: _212  and  _215
REMARK   90  A    between atoms: _215  and  _216
REMARK   91  A    between atoms: _219  and  _221
REMARK   92  A    between atoms: _221  and  _222
REMARK   93  A    between atoms: _221  and  _224
REMARK   94  A    between atoms: _224  and  _225
REMARK   95  A    between atoms: _228  and  _230
REMARK   96  A    between atoms: _230  and  _231
REMARK   97  A    between atoms: _230  and  _233
REMARK   98  A    between atoms: _235  and  _237
REMARK   99  A    between atoms: _237  and  _238
REMARK  100  A    between atoms: _237  and  _240
REMARK  101  A    between atoms: _240  and  _241
REMARK  102  A    between atoms: _241  and  _242
REMARK  103  A    between atoms: _242  and  _243
REMARK  104  A    between atoms: _252  and  _254
REMARK  105  A    between atoms: _254  and  _255
REMARK  106  A    between atoms: _254  and  _257
REMARK  107  A    between atoms: _257  and  _258
REMARK  108  A    between atoms: _258  and  _259
REMARK  109  A    between atoms: _259  and  _260
REMARK  110  A    between atoms: _260  and  _261
REMARK  111  A    between atoms: _265  and  _267
REMARK  112  A    between atoms: _267  and  _268
REMARK  113  A    between atoms: _267  and  _270
REMARK  114  A    between atoms: _270  and  _271
REMARK  115  A    between atoms: _274  and  _276
REMARK  116  A    between atoms: _276  and  _277
REMARK  117  A    between atoms: _280  and  _282
REMARK  118  A    between atoms: _282  and  _283
REMARK  119  A    between atoms: _282  and  _285
REMARK  120  A    between atoms: _288  and  _290
REMARK  121  A    between atoms: _290  and  _291
REMARK  122  A    between atoms: _290  and  _293
REMARK  123  A    between atoms: _293  and  _294
REMARK  124  A    between atoms: _299  and  _301
REMARK  125  A    between atoms: _301  and  _302
REMARK  126  A    between atoms: _301  and  _304
REMARK  127  A    between atoms: _304  and  _305
REMARK  128  A    between atoms: _311  and  _313
REMARK  129  A    between atoms: _313  and  _314
REMARK  130  A    between atoms: _313  and  _316
REMARK  131  A    between atoms: _316  and  _317
REMARK  132  A    between atoms: _320  and  _322
REMARK  133  A    between atoms: _322  and  _323
REMARK  134  A    between atoms: _326  and  _328
REMARK  135  A    between atoms: _328  and  _329
REMARK  136  A    between atoms: _328  and  _331
REMARK  137  A    between atoms: _331  and  _332
REMARK  138  A    between atoms: _334  and  _336
REMARK  139  A    between atoms: _336  and  _337
REMARK  140  A    between atoms: _336  and  _339
REMARK                            x       y       z     vdW  Elec       q    Type
REMARK                         _______ _______ _______ _____ _____    ______ ____
ROOT
ATOM      1  O   HOH     1      38.065   3.561  20.274  0.00  0.00    +0.000 OA
ENDROOT
TORSDOF 0
REMARK  Name = ../refined-set-2016/4g90/4g90_pocket.pdb
REMARK  140 active torsions:
REMARK  status: ('A' for Active; 'I' for Inactive)
REMARK    1  A    between atoms: _1  and  _3
REMARK    2  A    between atoms: _3  and  _4
REMARK    3  A    between atoms: _3  and  _6
REMARK    4  A    between atoms: _6  and  _7
REMARK    5  A    between atoms: _7  and  _8
REMARK    6  A    between atoms: _11  and  _13
REMARK    7  A    between atoms: _13  and  _14
REMARK    8  A    between atoms: _17  and  _19
REMARK    9  A    between atoms: _19  and  _20
REMARK   10  A    between atoms: _19  and  _22
REMARK   11  A    between atoms: _22  and  _23
REMARK   12  A    between atoms: _23  and  _24
REMARK   13  A    between atoms: _24  and  _25
REMARK   14  A    between atoms: _25  and  _26
REMARK   15  A    between atoms: _30  and  _32
REMARK   16  A    between atoms: _32  and  _33
REMARK   17  A    between atoms: _32  and  _35
REMARK   18  A    between atoms: _35  and  _36
REMARK   19  A    between atoms: _42  and  _44
REMARK   20  A    between atoms: _44  and  _45
REMARK   21  A    between atoms: _44  and  _47
REMARK   22  A    between atoms: _47  and  _48
REMARK   23  A    between atoms: _48  and  _49
REMARK   24  A    between atoms: _49  and  _50
REMARK   25  A    between atoms: _59  and  _61
REMARK   26  A    between atoms: _61  and  _62
REMARK   27  A    between atoms: _61  and  _64
REMARK   28  A    between atoms: _64  and  _65
REMARK   29  A    between atoms: _65  and  _66
REMARK   30  A    between atoms: _71  and  _73
REMARK   31  A    between atoms: _73  and  _74
REMARK   32  A    between atoms: _73  and  _76
REMARK   33  A    between atoms: _76  and  _77
REMARK   34  A    between atoms: _82  and  _84
REMARK   35  A    between atoms: _84  and  _85
REMARK   36  A    between atoms: _84  and  _87
REMARK   37  A    between atoms: _87  and  _88
REMARK   38  A    between atoms: _88  and  _89
REMARK   39  A    between atoms: _91  and  _93
REMARK   40  A    between atoms: _93  and  _94
REMARK   41  A    between atoms: _93  and  _96
REMARK   42  A    between atoms: _96  and  _97
REMARK   43  A    between atoms: _100  and  _102
REMARK   44  A    between atoms: _102  and  _103
REMARK   45  A    between atoms: _102  and  _105
REMARK   46  A    between atoms: _105  and  _106
REMARK   47  A    between atoms: _106  and  _107
REMARK   48  A    between atoms: _107  and  _108
REMARK   49  A    between atoms: _117  and  _119
REMARK   50  A    between atoms: _119  and  _120
REMARK   51  A    between atoms: _119  and  _122
REMARK   52  A    between atoms: _122  and  _123
REMARK   53  A    between atoms: _123  and  _124
REMARK   54  A    between atoms: _124  and  _125
REMARK   55  A    between atoms: _125  and  _126
REMARK   56  A    between atoms: _131  and  _132
REMARK   57  A    between atoms: _137  and  _139
REMARK   58  A    between atoms: _139  and  _140
REMARK   59  A    between atoms: _139  and  _142
REMARK   60  A    between atoms: _145  and  _147
REMARK   61  A    between atoms: _147  and  _148
REMARK   62  A    between atoms: _147  and  _150
REMARK   63  A    between atoms: _150  and  _151
REMARK   64  A    between atoms: _156  and  _158
REMARK   65  A    between atoms: _158  and  _159
REMARK   66  A    between atoms: _158  and  _161
REMARK   67  A    between atoms: _161  and  _162
REMARK   68  A    between atoms: _165  and  _167
REMARK   69  A    between atoms: _167  and  _168
REMARK   70  A    between atoms: _167  and  _170
REMARK   71  A    between atoms: _170  and  _171
REMARK   72  A    between atoms: _177  and  _179
REMARK   73  A    between atoms: _179  and  _180
REMARK   74  A    between atoms: _179  and  _182
REMARK   75  A    between atoms: _182  and  _183
REMARK   76  A    between atoms: _183  and  _184
REMARK   77  A    between atoms: _184  and  _185
REMARK   78  A    between atoms: _185  and  _186
REMARK   79  A    between atoms: _190  and  _192
REMARK   80  A    between atoms: _192  and  _193
REMARK   81  A    between atoms: _192  and  _195
REMARK   82  A    between atoms: _195  and  _196
REMARK   83  A    between atoms: _201  and  _203
REMARK   84  A    between atoms: _203  and  _204
REMARK   85  A    between atoms: _203  and  _206
REMARK   86  A    between atoms: _206  and  _207
REMARK   87  A    between atoms: _210  and  _212
REMARK   88  A    between atoms: _212  and  _213
REMARK   89  A    between atoms: _212  and  _215
REMARK   90  A    between atoms: _215  and  _216
REMARK   91  A    between atoms: _219  and  _221
REMARK   92  A    between atoms: _221  and  _222
REMARK   93  A    between atoms: _221  and  _224
REMARK   94  A    between atoms: _224  and  _225
REMARK   95  A    between atoms: _228  and  _230
REMARK   96  A    between atoms: _230  and  _231
REMARK   97  A    between atoms: _230  and  _233
REMARK   98  A    between atoms: _235  and  _237
REMARK   99  A    between atoms: _237  and  _238
REMARK  100  A    between atoms: _237  and  _240
REMARK  101  A    between atoms: _240  and  _241
REMARK  102  A    between atoms: _241  and  _242
REMARK  103  A    between atoms: _242  and  _243
REMARK  104  A    between atoms: _252  and  _254
REMARK  105  A    between atoms: _254  and  _255
REMARK  106  A    between atoms: _254  and  _257
REMARK  107  A    between atoms: _257  and  _258
REMARK  108  A    between atoms: _258  and  _259
REMARK  109  A    between atoms: _259  and  _260
REMARK  110  A    between atoms: _260  and  _261
REMARK  111  A    between atoms: _265  and  _267
REMARK  112  A    between atoms: _267  and  _268
REMARK  113  A    between atoms: _267  and  _270
REMARK  114  A    between atoms: _270  and  _271
REMARK  115  A    between atoms: _274  and  _276
REMARK  116  A    between atoms: _276  and  _277
REMARK  117  A    between atoms: _280  and  _282
REMARK  118  A    between atoms: _282  and  _283
REMARK  119  A    between atoms: _282  and  _285
REMARK  120  A    between atoms: _288  and  _290
REMARK  121  A    between atoms: _290  and  _291
REMARK  122  A    between atoms: _290  and  _293
REMARK  123  A    between atoms: _293  and  _294
REMARK  124  A    between atoms: _299  and  _301
REMARK  125  A    between atoms: _301  and  _302
REMARK  126  A    between atoms: _301  and  _304
REMARK  127  A    between atoms: _304  and  _305
REMARK  128  A    between atoms: _311  and  _313
REMARK  129  A    between atoms: _313  and  _314
REMARK  130  A    between atoms: _313  and  _316
REMARK  131  A    between atoms: _316  and  _317
REMARK  132  A    between atoms: _320  and  _322
REMARK  133  A    between atoms: _322  and  _323
REMARK  134  A    between atoms: _326  and  _328
REMARK  135  A    between atoms: _328  and  _329
REMARK  136  A    between atoms: _328  and  _331
REMARK  137  A    between atoms: _331  and  _332
REMARK  138  A    between atoms: _334  and  _336
REMARK  139  A    between atoms: _336  and  _337
REMARK  140  A    between atoms: _336  and  _339
REMARK                            x       y       z     vdW  Elec       q    Type
REMARK                         _______ _______ _______ _____ _____    ______ ____
ROOT
ATOM      1  O   HOH     1      35.333   1.143  18.767  0.00  0.00    +0.000 OA
ENDROOT
TORSDOF 0
REMARK  Name = ../refined-set-2016/4g90/4g90_pocket.pdb
REMARK  140 active torsions:
REMARK  status: ('A' for Active; 'I' for Inactive)
REMARK    1  A    between atoms: _1  and  _3
REMARK    2  A    between atoms: _3  and  _4
REMARK    3  A    between atoms: _3  and  _6
REMARK    4  A    between atoms: _6  and  _7
REMARK    5  A    between atoms: _7  and  _8
REMARK    6  A    between atoms: _11  and  _13
REMARK    7  A    between atoms: _13  and  _14
REMARK    8  A    between atoms: _17  and  _19
REMARK    9  A    between atoms: _19  and  _20
REMARK   10  A    between atoms: _19  and  _22
REMARK   11  A    between atoms: _22  and  _23
REMARK   12  A    between atoms: _23  and  _24
REMARK   13  A    between atoms: _24  and  _25
REMARK   14  A    between atoms: _25  and  _26
REMARK   15  A    between atoms: _30  and  _32
REMARK   16  A    between atoms: _32  and  _33
REMARK   17  A    between atoms: _32  and  _35
REMARK   18  A    between atoms: _35  and  _36
REMARK   19  A    between atoms: _42  and  _44
REMARK   20  A    between atoms: _44  and  _45
REMARK   21  A    between atoms: _44  and  _47
REMARK   22  A    between atoms: _47  and  _48
REMARK   23  A    between atoms: _48  and  _49
REMARK   24  A    between atoms: _49  and  _50
REMARK   25  A    between atoms: _59  and  _61
REMARK   26  A    between atoms: _61  and  _62
REMARK   27  A    between atoms: _61  and  _64
REMARK   28  A    between atoms: _64  and  _65
REMARK   29  A    between atoms: _65  and  _66
REMARK   30  A    between atoms: _71  and  _73
REMARK   31  A    between atoms: _73  and  _74
REMARK   32  A    between atoms: _73  and  _76
REMARK   33  A    between atoms: _76  and  _77
REMARK   34  A    between atoms: _82  and  _84
REMARK   35  A    between atoms: _84  and  _85
REMARK   36  A    between atoms: _84  and  _87
REMARK   37  A    between atoms: _87  and  _88
REMARK   38  A    between atoms: _88  and  _89
REMARK   39  A    between atoms: _91  and  _93
REMARK   40  A    between atoms: _93  and  _94
REMARK   41  A    between atoms: _93  and  _96
REMARK   42  A    between atoms: _96  and  _97
REMARK   43  A    between atoms: _100  and  _102
REMARK   44  A    between atoms: _102  and  _103
REMARK   45  A    between atoms: _102  and  _105
REMARK   46  A    between atoms: _105  and  _106
REMARK   47  A    between atoms: _106  and  _107
REMARK   48  A    between atoms: _107  and  _108
REMARK   49  A    between atoms: _117  and  _119
REMARK   50  A    between atoms: _119  and  _120
REMARK   51  A    between atoms: _119  and  _122
REMARK   52  A    between atoms: _122  and  _123
REMARK   53  A    between atoms: _123  and  _124
REMARK   54  A    between atoms: _124  and  _125
REMARK   55  A    between atoms: _125  and  _126
REMARK   56  A    between atoms: _131  and  _132
REMARK   57  A    between atoms: _137  and  _139
REMARK   58  A    between atoms: _139  and  _140
REMARK   59  A    between atoms: _139  and  _142
REMARK   60  A    between atoms: _145  and  _147
REMARK   61  A    between atoms: _147  and  _148
REMARK   62  A    between atoms: _147  and  _150
REMARK   63  A    between atoms: _150  and  _151
REMARK   64  A    between atoms: _156  and  _158
REMARK   65  A    between atoms: _158  and  _159
REMARK   66  A    between atoms: _158  and  _161
REMARK   67  A    between atoms: _161  and  _162
REMARK   68  A    between atoms: _165  and  _167
REMARK   69  A    between atoms: _167  and  _168
REMARK   70  A    between atoms: _167  and  _170
REMARK   71  A    between atoms: _170  and  _171
REMARK   72  A    between atoms: _177  and  _179
REMARK   73  A    between atoms: _179  and  _180
REMARK   74  A    between atoms: _179  and  _182
REMARK   75  A    between atoms: _182  and  _183
REMARK   76  A    between atoms: _183  and  _184
REMARK   77  A    between atoms: _184  and  _185
REMARK   78  A    between atoms: _185  and  _186
REMARK   79  A    between atoms: _190  and  _192
REMARK   80  A    between atoms: _192  and  _193
REMARK   81  A    between atoms: _192  and  _195
REMARK   82  A    between atoms: _195  and  _196
REMARK   83  A    between atoms: _201  and  _203
REMARK   84  A    between atoms: _203  and  _204
REMARK   85  A    between atoms: _203  and  _206
REMARK   86  A    between atoms: _206  and  _207
REMARK   87  A    between atoms: _210  and  _212
REMARK   88  A    between atoms: _212  and  _213
REMARK   89  A    between atoms: _212  and  _215
REMARK   90  A    between atoms: _215  and  _216
REMARK   91  A    between atoms: _219  and  _221
REMARK   92  A    between atoms: _221  and  _222
REMARK   93  A    between atoms: _221  and  _224
REMARK   94  A    between atoms: _224  and  _225
REMARK   95  A    between atoms: _228  and  _230
REMARK   96  A    between atoms: _230  and  _231
REMARK   97  A    between atoms: _230  and  _233
REMARK   98  A    between atoms: _235  and  _237
REMARK   99  A    between atoms: _237  and  _238
REMARK  100  A    between atoms: _237  and  _240
REMARK  101  A    between atoms: _240  and  _241
REMARK  102  A    between atoms: _241  and  _242
REMARK  103  A    between atoms: _242  and  _243
REMARK  104  A    between atoms: _252  and  _254
REMARK  105  A    between atoms: _254  and  _255
REMARK  106  A    between atoms: _254  and  _257
REMARK  107  A    between atoms: _257  and  _258
REMARK  108  A    between atoms: _258  and  _259
REMARK  109  A    between atoms: _259  and  _260
REMARK  110  A    between atoms: _260  and  _261
REMARK  111  A    between atoms: _265  and  _267
REMARK  112  A    between atoms: _267  and  _268
REMARK  113  A    between atoms: _267  and  _270
REMARK  114  A    between atoms: _270  and  _271
REMARK  115  A    between atoms: _274  and  _276
REMARK  116  A    between atoms: _276  and  _277
REMARK  117  A    between atoms: _280  and  _282
REMARK  118  A    between atoms: _282  and  _283
REMARK  119  A    between atoms: _282  and  _285
REMARK  120  A    between atoms: _288  and  _290
REMARK  121  A    between atoms: _290  and  _291
REMARK  122  A    between atoms: _290  and  _293
REMARK  123  A    between atoms: _293  and  _294
REMARK  124  A    between atoms: _299  and  _301
REMARK  125  A    between atoms: _301  and  _302
REMARK  126  A    between atoms: _301  and  _304
REMARK  127  A    between atoms: _304  and  _305
REMARK  128  A    between atoms: _311  and  _313
REMARK  129  A    between atoms: _313  and  _314
REMARK  130  A    between atoms: _313  and  _316
REMARK  131  A    between atoms: _316  and  _317
REMARK  132  A    between atoms: _320  and  _322
REMARK  133  A    between atoms: _322  and  _323
REMARK  134  A    between atoms: _326  and  _328
REMARK  135  A    between atoms: _328  and  _329
REMARK  136  A    between atoms: _328  and  _331
REMARK  137  A    between atoms: _331  and  _332
REMARK  138  A    between atoms: _334  and  _336
REMARK  139  A    between atoms: _336  and  _337
REMARK  140  A    between atoms: _336  and  _339
REMARK                            x       y       z     vdW  Elec       q    Type
REMARK                         _______ _______ _______ _____ _____    ______ ____
ROOT
ATOM      1  O   HOH     1      36.801   1.045  17.110  0.00  0.00    +0.000 OA
ENDROOT
TORSDOF 0
REMARK  Name = ../refined-set-2016/4g90/4g90_pocket.pdb
REMARK  140 active torsions:
REMARK  status: ('A' for Active; 'I' for Inactive)
REMARK    1  A    between atoms: _1  and  _3
REMARK    2  A    between atoms: _3  and  _4
REMARK    3  A    between atoms: _3  and  _6
REMARK    4  A    between atoms: _6  and  _7
REMARK    5  A    between atoms: _7  and  _8
REMARK    6  A    between atoms: _11  and  _13
REMARK    7  A    between atoms: _13  and  _14
REMARK    8  A    between atoms: _17  and  _19
REMARK    9  A    between atoms: _19  and  _20
REMARK   10  A    between atoms: _19  and  _22
REMARK   11  A    between atoms: _22  and  _23
REMARK   12  A    between atoms: _23  and  _24
REMARK   13  A    between atoms: _24  and  _25
REMARK   14  A    between atoms: _25  and  _26
REMARK   15  A    between atoms: _30  and  _32
REMARK   16  A    between atoms: _32  and  _33
REMARK   17  A    between atoms: _32  and  _35
REMARK   18  A    between atoms: _35  and  _36
REMARK   19  A    between atoms: _42  and  _44
REMARK   20  A    between atoms: _44  and  _45
REMARK   21  A    between atoms: _44  and  _47
REMARK   22  A    between atoms: _47  and  _48
REMARK   23  A    between atoms: _48  and  _49
REMARK   24  A    between atoms: _49  and  _50
REMARK   25  A    between atoms: _59  and  _61
REMARK   26  A    between atoms: _61  and  _62
REMARK   27  A    between atoms: _61  and  _64
REMARK   28  A    between atoms: _64  and  _65
REMARK   29  A    between atoms: _65  and  _66
REMARK   30  A    between atoms: _71  and  _73
REMARK   31  A    between atoms: _73  and  _74
REMARK   32  A    between atoms: _73  and  _76
REMARK   33  A    between atoms: _76  and  _77
REMARK   34  A    between atoms: _82  and  _84
REMARK   35  A    between atoms: _84  and  _85
REMARK   36  A    between atoms: _84  and  _87
REMARK   37  A    between atoms: _87  and  _88
REMARK   38  A    between atoms: _88  and  _89
REMARK   39  A    between atoms: _91  and  _93
REMARK   40  A    between atoms: _93  and  _94
REMARK   41  A    between atoms: _93  and  _96
REMARK   42  A    between atoms: _96  and  _97
REMARK   43  A    between atoms: _100  and  _102
REMARK   44  A    between atoms: _102  and  _103
REMARK   45  A    between atoms: _102  and  _105
REMARK   46  A    between atoms: _105  and  _106
REMARK   47  A    between atoms: _106  and  _107
REMARK   48  A    between atoms: _107  and  _108
REMARK   49  A    between atoms: _117  and  _119
REMARK   50  A    between atoms: _119  and  _120
REMARK   51  A    between atoms: _119  and  _122
REMARK   52  A    between atoms: _122  and  _123
REMARK   53  A    between atoms: _123  and  _124
REMARK   54  A    between atoms: _124  and  _125
REMARK   55  A    between atoms: _125  and  _126
REMARK   56  A    between atoms: _131  and  _132
REMARK   57  A    between atoms: _137  and  _139
REMARK   58  A    between atoms: _139  and  _140
REMARK   59  A    between atoms: _139  and  _142
REMARK   60  A    between atoms: _145  and  _147
REMARK   61  A    between atoms: _147  and  _148
REMARK   62  A    between atoms: _147  and  _150
REMARK   63  A    between atoms: _150  and  _151
REMARK   64  A    between atoms: _156  and  _158
REMARK   65  A    between atoms: _158  and  _159
REMARK   66  A    between atoms: _158  and  _161
REMARK   67  A    between atoms: _161  and  _162
REMARK   68  A    between atoms: _165  and  _167
REMARK   69  A    between atoms: _167  and  _168
REMARK   70  A    between atoms: _167  and  _170
REMARK   71  A    between atoms: _170  and  _171
REMARK   72  A    between atoms: _177  and  _179
REMARK   73  A    between atoms: _179  and  _180
REMARK   74  A    between atoms: _179  and  _182
REMARK   75  A    between atoms: _182  and  _183
REMARK   76  A    between atoms: _183  and  _184
REMARK   77  A    between atoms: _184  and  _185
REMARK   78  A    between atoms: _185  and  _186
REMARK   79  A    between atoms: _190  and  _192
REMARK   80  A    between atoms: _192  and  _193
REMARK   81  A    between atoms: _192  and  _195
REMARK   82  A    between atoms: _195  and  _196
REMARK   83  A    between atoms: _201  and  _203
REMARK   84  A    between atoms: _203  and  _204
REMARK   85  A    between atoms: _203  and  _206
REMARK   86  A    between atoms: _206  and  _207
REMARK   87  A    between atoms: _210  and  _212
REMARK   88  A    between atoms: _212  and  _213
REMARK   89  A    between atoms: _212  and  _215
REMARK   90  A    between atoms: _215  and  _216
REMARK   91  A    between atoms: _219  and  _221
REMARK   92  A    between atoms: _221  and  _222
REMARK   93  A    between atoms: _221  and  _224
REMARK   94  A    between atoms: _224  and  _225
REMARK   95  A    between atoms: _228  and  _230
REMARK   96  A    between atoms: _230  and  _231
REMARK   97  A    between atoms: _230  and  _233
REMARK   98  A    between atoms: _235  and  _237
REMARK   99  A    between atoms: _237  and  _238
REMARK  100  A    between atoms: _237  and  _240
REMARK  101  A    between atoms: _240  and  _241
REMARK  102  A    between atoms: _241  and  _242
REMARK  103  A    between atoms: _242  and  _243
REMARK  104  A    between atoms: _252  and  _254
REMARK  105  A    between atoms: _254  and  _255
REMARK  106  A    between atoms: _254  and  _257
REMARK  107  A    between atoms: _257  and  _258
REMARK  108  A    between atoms: _258  and  _259
REMARK  109  A    between atoms: _259  and  _260
REMARK  110  A    between atoms: _260  and  _261
REMARK  111  A    between atoms: _265  and  _267
REMARK  112  A    between atoms: _267  and  _268
REMARK  113  A    between atoms: _267  and  _270
REMARK  114  A    between atoms: _270  and  _271
REMARK  115  A    between atoms: _274  and  _276
REMARK  116  A    between atoms: _276  and  _277
REMARK  117  A    between atoms: _280  and  _282
REMARK  118  A    between atoms: _282  and  _283
REMARK  119  A    between atoms: _282  and  _285
REMARK  120  A    between atoms: _288  and  _290
REMARK  121  A    between atoms: _290  and  _291
REMARK  122  A    between atoms: _290  and  _293
REMARK  123  A    between atoms: _293  and  _294
REMARK  124  A    between atoms: _299  and  _301
REMARK  125  A    between atoms: _301  and  _302
REMARK  126  A    between atoms: _301  and  _304
REMARK  127  A    between atoms: _304  and  _305
REMARK  128  A    between atoms: _311  and  _313
REMARK  129  A    between atoms: _313  and  _314
REMARK  130  A    between atoms: _313  and  _316
REMARK  131  A    between atoms: _316  and  _317
REMARK  132  A    between atoms: _320  and  _322
REMARK  133  A    between atoms: _322  and  _323
REMARK  134  A    between atoms: _326  and  _328
REMARK  135  A    between atoms: _328  and  _329
REMARK  136  A    between atoms: _328  and  _331
REMARK  137  A    between atoms: _331  and  _332
REMARK  138  A    between atoms: _334  and  _336
REMARK  139  A    between atoms: _336  and  _337
REMARK  140  A    between atoms: _336  and  _339
REMARK                            x       y       z     vdW  Elec       q    Type
REMARK                         _______ _______ _______ _____ _____    ______ ____
ROOT
ATOM      1  O   HOH     1      39.851  -0.627  13.263  0.00  0.00    +0.000 OA
ENDROOT
TORSDOF 0
