REMARK  Name = ../refined-set-2016/3uex/3uex_pocket.pdb
REMARK  245 active torsions:
REMARK  status: ('A' for Active; 'I' for Inactive)
REMARK    1  A    between atoms: _1  and  _3
REMARK    2  A    between atoms: _3  and  _4
REMARK    3  A    between atoms: _3  and  _6
REMARK    4  A    between atoms: _6  and  _7
REMARK    5  A    between atoms: _10  and  _12
REMARK    6  A    between atoms: _12  and  _13
REMARK    7  A    between atoms: _12  and  _15
REMARK    8  A    between atoms: _15  and  _16
REMARK    9  A    between atoms: _19  and  _21
REMARK   10  A    between atoms: _21  and  _22
REMARK   11  A    between atoms: _21  and  _24
REMARK   12  A    between atoms: _27  and  _29
REMARK   13  A    between atoms: _29  and  _30
REMARK   14  A    between atoms: _33  and  _35
REMARK   15  A    between atoms: _35  and  _36
REMARK   16  A    between atoms: _35  and  _38
REMARK   17  A    between atoms: _38  and  _39
REMARK   18  A    between atoms: _49  and  _51
REMARK   19  A    between atoms: _51  and  _52
REMARK   20  A    between atoms: _51  and  _54
REMARK   21  A    between atoms: _54  and  _55
REMARK   22  A    between atoms: _57  and  _59
REMARK   23  A    between atoms: _59  and  _60
REMARK   24  A    between atoms: _59  and  _62
REMARK   25  A    between atoms: _62  and  _63
REMARK   26  A    between atoms: _65  and  _67
REMARK   27  A    between atoms: _67  and  _68
REMARK   28  A    between atoms: _72  and  _73
REMARK   29  A    between atoms: _78  and  _80
REMARK   30  A    between atoms: _80  and  _81
REMARK   31  A    between atoms: _80  and  _83
REMARK   32  A    between atoms: _83  and  _84
REMARK   33  A    between atoms: _87  and  _89
REMARK   34  A    between atoms: _89  and  _90
REMARK   35  A    between atoms: _89  and  _92
REMARK   36  A    between atoms: _92  and  _93
REMARK   37  A    between atoms: _93  and  _94
REMARK   38  A    between atoms: _94  and  _95
REMARK   39  A    between atoms: _104  and  _106
REMARK   40  A    between atoms: _106  and  _107
REMARK   41  A    between atoms: _106  and  _109
REMARK   42  A    between atoms: _112  and  _114
REMARK   43  A    between atoms: _114  and  _115
REMARK   44  A    between atoms: _114  and  _117
REMARK   45  A    between atoms: _117  and  _118
REMARK   46  A    between atoms: _123  and  _124
REMARK   47  A    between atoms: _126  and  _128
REMARK   48  A    between atoms: _128  and  _129
REMARK   49  A    between atoms: _128  and  _131
REMARK   50  A    between atoms: _134  and  _136
REMARK   51  A    between atoms: _136  and  _137
REMARK   52  A    between atoms: _136  and  _139
REMARK   53  A    between atoms: _139  and  _140
REMARK   54  A    between atoms: _140  and  _141
REMARK   55  A    between atoms: _144  and  _146
REMARK   56  A    between atoms: _146  and  _147
REMARK   57  A    between atoms: _146  and  _149
REMARK   58  A    between atoms: _149  and  _150
REMARK   59  A    between atoms: _150  and  _151
REMARK   60  A    between atoms: _154  and  _156
REMARK   61  A    between atoms: _156  and  _157
REMARK   62  A    between atoms: _156  and  _159
REMARK   63  A    between atoms: _159  and  _160
REMARK   64  A    between atoms: _163  and  _165
REMARK   65  A    between atoms: _165  and  _166
REMARK   66  A    between atoms: _165  and  _168
REMARK   67  A    between atoms: _168  and  _169
REMARK   68  A    between atoms: _169  and  _170
REMARK   69  A    between atoms: _170  and  _171
REMARK   70  A    between atoms: _171  and  _172
REMARK   71  A    between atoms: _177  and  _178
REMARK   72  A    between atoms: _183  and  _185
REMARK   73  A    between atoms: _185  and  _186
REMARK   74  A    between atoms: _188  and  _190
REMARK   75  A    between atoms: _190  and  _191
REMARK   76  A    between atoms: _190  and  _193
REMARK   77  A    between atoms: _193  and  _194
REMARK   78  A    between atoms: _197  and  _199
REMARK   79  A    between atoms: _199  and  _200
REMARK   80  A    between atoms: _199  and  _202
REMARK   81  A    between atoms: _202  and  _203
REMARK   82  A    between atoms: _206  and  _208
REMARK   83  A    between atoms: _208  and  _209
REMARK   84  A    between atoms: _208  and  _211
REMARK   85  A    between atoms: _211  and  _212
REMARK   86  A    between atoms: _212  and  _213
REMARK   87  A    between atoms: _216  and  _218
REMARK   88  A    between atoms: _218  and  _219
REMARK   89  A    between atoms: _218  and  _221
REMARK   90  A    between atoms: _221  and  _222
REMARK   91  A    between atoms: _225  and  _227
REMARK   92  A    between atoms: _227  and  _228
REMARK   93  A    between atoms: _227  and  _230
REMARK   94  A    between atoms: _230  and  _231
REMARK   95  A    between atoms: _234  and  _236
REMARK   96  A    between atoms: _236  and  _237
REMARK   97  A    between atoms: _236  and  _239
REMARK   98  A    between atoms: _239  and  _240
REMARK   99  A    between atoms: _243  and  _245
REMARK  100  A    between atoms: _245  and  _246
REMARK  101  A    between atoms: _245  and  _248
REMARK  102  A    between atoms: _248  and  _249
REMARK  103  A    between atoms: _249  and  _250
REMARK  104  A    between atoms: _255  and  _257
REMARK  105  A    between atoms: _257  and  _258
REMARK  106  A    between atoms: _257  and  _260
REMARK  107  A    between atoms: _260  and  _261
REMARK  108  A    between atoms: _261  and  _262
REMARK  109  A    between atoms: _262  and  _263
REMARK  110  A    between atoms: _263  and  _264
REMARK  111  A    between atoms: _268  and  _270
REMARK  112  A    between atoms: _270  and  _271
REMARK  113  A    between atoms: _270  and  _273
REMARK  114  A    between atoms: _273  and  _274
REMARK  115  A    between atoms: _284  and  _286
REMARK  116  A    between atoms: _286  and  _287
REMARK  117  A    between atoms: _286  and  _289
REMARK  118  A    between atoms: _289  and  _290
REMARK  119  A    between atoms: _290  and  _291
REMARK  120  A    between atoms: _294  and  _296
REMARK  121  A    between atoms: _296  and  _297
REMARK  122  A    between atoms: _300  and  _302
REMARK  123  A    between atoms: _302  and  _303
REMARK  124  A    between atoms: _302  and  _305
REMARK  125  A    between atoms: _305  and  _306
REMARK  126  A    between atoms: _306  and  _307
REMARK  127  A    between atoms: _307  and  _308
REMARK  128  A    between atoms: _308  and  _309
REMARK  129  A    between atoms: _313  and  _315
REMARK  130  A    between atoms: _315  and  _316
REMARK  131  A    between atoms: _315  and  _318
REMARK  132  A    between atoms: _318  and  _319
REMARK  133  A    between atoms: _319  and  _320
REMARK  134  A    between atoms: _320  and  _321
REMARK  135  A    between atoms: _321  and  _322
REMARK  136  A    between atoms: _326  and  _328
REMARK  137  A    between atoms: _328  and  _329
REMARK  138  A    between atoms: _328  and  _331
REMARK  139  A    between atoms: _331  and  _332
REMARK  140  A    between atoms: _335  and  _337
REMARK  141  A    between atoms: _337  and  _338
REMARK  142  A    between atoms: _341  and  _343
REMARK  143  A    between atoms: _343  and  _344
REMARK  144  A    between atoms: _343  and  _346
REMARK  145  A    between atoms: _346  and  _347
REMARK  146  A    between atoms: _347  and  _348
REMARK  147  A    between atoms: _348  and  _349
REMARK  148  A    between atoms: _349  and  _350
REMARK  149  A    between atoms: _355  and  _356
REMARK  150  A    between atoms: _361  and  _363
REMARK  151  A    between atoms: _363  and  _364
REMARK  152  A    between atoms: _367  and  _369
REMARK  153  A    between atoms: _369  and  _370
REMARK  154  A    between atoms: _369  and  _372
REMARK  155  A    between atoms: _375  and  _377
REMARK  156  A    between atoms: _377  and  _378
REMARK  157  A    between atoms: _377  and  _380
REMARK  158  A    between atoms: _380  and  _381
REMARK  159  A    between atoms: _387  and  _389
REMARK  160  A    between atoms: _389  and  _390
REMARK  161  A    between atoms: _389  and  _392
REMARK  162  A    between atoms: _392  and  _393
REMARK  163  A    between atoms: _396  and  _398
REMARK  164  A    between atoms: _398  and  _399
REMARK  165  A    between atoms: _398  and  _401
REMARK  166  A    between atoms: _401  and  _402
REMARK  167  A    between atoms: _405  and  _407
REMARK  168  A    between atoms: _407  and  _408
REMARK  169  A    between atoms: _407  and  _410
REMARK  170  A    between atoms: _410  and  _411
REMARK  171  A    between atoms: _414  and  _416
REMARK  172  A    between atoms: _416  and  _417
REMARK  173  A    between atoms: _416  and  _419
REMARK  174  A    between atoms: _419  and  _420
REMARK  175  A    between atoms: _425  and  _427
REMARK  176  A    between atoms: _427  and  _428
REMARK  177  A    between atoms: _427  and  _430
REMARK  178  A    between atoms: _430  and  _431
REMARK  179  A    between atoms: _431  and  _432
REMARK  180  A    between atoms: _432  and  _433
REMARK  181  A    between atoms: _433  and  _434
REMARK  182  A    between atoms: _438  and  _440
REMARK  183  A    between atoms: _440  and  _441
REMARK  184  A    between atoms: _440  and  _443
REMARK  185  A    between atoms: _446  and  _448
REMARK  186  A    between atoms: _448  and  _449
REMARK  187  A    between atoms: _448  and  _451
REMARK  188  A    between atoms: _451  and  _452
REMARK  189  A    between atoms: _455  and  _457
REMARK  190  A    between atoms: _457  and  _458
REMARK  191  A    between atoms: _457  and  _460
REMARK  192  A    between atoms: _463  and  _465
REMARK  193  A    between atoms: _465  and  _466
REMARK  194  A    between atoms: _465  and  _468
REMARK  195  A    between atoms: _468  and  _469
REMARK  196  A    between atoms: _472  and  _474
REMARK  197  A    between atoms: _474  and  _475
REMARK  198  A    between atoms: _474  and  _477
REMARK  199  A    between atoms: _477  and  _478
REMARK  200  A    between atoms: _481  and  _483
REMARK  201  A    between atoms: _483  and  _484
REMARK  202  A    between atoms: _483  and  _486
REMARK  203  A    between atoms: _486  and  _487
REMARK  204  A    between atoms: _490  and  _492
REMARK  205  A    between atoms: _492  and  _493
REMARK  206  A    between atoms: _492  and  _495
REMARK  207  A    between atoms: _495  and  _496
REMARK  208  A    between atoms: _499  and  _501
REMARK  209  A    between atoms: _501  and  _502
REMARK  210  A    between atoms: _501  and  _504
REMARK  211  A    between atoms: _504  and  _505
REMARK  212  A    between atoms: _508  and  _510
REMARK  213  A    between atoms: _510  and  _511
REMARK  214  A    between atoms: _510  and  _513
REMARK  215  A    between atoms: _513  and  _514
REMARK  216  A    between atoms: _520  and  _522
REMARK  217  A    between atoms: _522  and  _523
REMARK  218  A    between atoms: _522  and  _525
REMARK  219  A    between atoms: _525  and  _526
REMARK  220  A    between atoms: _526  and  _558
REMARK  221  A    between atoms: _527  and  _529
REMARK  222  A    between atoms: _529  and  _530
REMARK  223  A    between atoms: _529  and  _532
REMARK  224  A    between atoms: _532  and  _533
REMARK  225  A    between atoms: _533  and  _534
REMARK  226  A    between atoms: _536  and  _538
REMARK  227  A    between atoms: _538  and  _539
REMARK  228  A    between atoms: _538  and  _541
REMARK  229  A    between atoms: _541  and  _542
REMARK  230  A    between atoms: _542  and  _543
REMARK  231  A    between atoms: _546  and  _548
REMARK  232  A    between atoms: _548  and  _549
REMARK  233  A    between atoms: _552  and  _554
REMARK  234  A    between atoms: _554  and  _555
REMARK  235  A    between atoms: _554  and  _557
REMARK  236  A    between atoms: _557  and  _558
REMARK  237  A    between atoms: _559  and  _561
REMARK  238  A    between atoms: _561  and  _562
REMARK  239  A    between atoms: _561  and  _564
REMARK  240  A    between atoms: _564  and  _565
REMARK  241  A    between atoms: _565  and  _566
REMARK  242  A    between atoms: _571  and  _573
REMARK  243  A    between atoms: _573  and  _574
REMARK  244  A    between atoms: _573  and  _576
REMARK  245  A    between atoms: _576  and  _577
REMARK                            x       y       z     vdW  Elec       q    Type
REMARK                         _______ _______ _______ _____ _____    ______ ____
ROOT
ATOM      1  CA  LEU A   1      -9.191  25.954  11.534  0.00  0.00    +0.133 C 
ENDROOT
BRANCH   1   2
ATOM      2  N   LEU A   1     -10.442  26.654  11.326  0.00  0.00    -0.239 NA
ATOM      3  H   LEU A   1     -11.329  26.180  11.592  0.00  0.00    +0.142 HD
ENDBRANCH   1   2
BRANCH   1   4
ATOM      4  C   LEU A   1      -8.306  25.921  10.285  0.00  0.00    +0.224 C 
ATOM      5  O   LEU A   1      -8.722  25.449   9.220  0.00  0.00    -0.287 OA
ENDBRANCH   1   4
BRANCH   1   6
ATOM      6  CB  LEU A   1      -9.442  24.510  12.010  0.00  0.00    +0.025 C 
BRANCH   6   7
ATOM      7  CG  LEU A   1      -8.171  23.703  12.357  0.00  0.00    +0.002 C 
ATOM      8  CD2 LEU A   1      -7.326  24.382  13.463  0.00  0.00    +0.000 C 
ATOM      9  CD1 LEU A   1      -8.450  22.265  12.715  0.00  0.00    +0.000 C 
ENDBRANCH   6   7
ENDBRANCH   1   6
TORSDOF 4
REMARK  Name = ../refined-set-2016/3uex/3uex_pocket.pdb
REMARK  245 active torsions:
REMARK  status: ('A' for Active; 'I' for Inactive)
REMARK    1  A    between atoms: _1  and  _3
REMARK    2  A    between atoms: _3  and  _4
REMARK    3  A    between atoms: _3  and  _6
REMARK    4  A    between atoms: _6  and  _7
REMARK    5  A    between atoms: _10  and  _12
REMARK    6  A    between atoms: _12  and  _13
REMARK    7  A    between atoms: _12  and  _15
REMARK    8  A    between atoms: _15  and  _16
REMARK    9  A    between atoms: _19  and  _21
REMARK   10  A    between atoms: _21  and  _22
REMARK   11  A    between atoms: _21  and  _24
REMARK   12  A    between atoms: _27  and  _29
REMARK   13  A    between atoms: _29  and  _30
REMARK   14  A    between atoms: _33  and  _35
REMARK   15  A    between atoms: _35  and  _36
REMARK   16  A    between atoms: _35  and  _38
REMARK   17  A    between atoms: _38  and  _39
REMARK   18  A    between atoms: _49  and  _51
REMARK   19  A    between atoms: _51  and  _52
REMARK   20  A    between atoms: _51  and  _54
REMARK   21  A    between atoms: _54  and  _55
REMARK   22  A    between atoms: _57  and  _59
REMARK   23  A    between atoms: _59  and  _60
REMARK   24  A    between atoms: _59  and  _62
REMARK   25  A    between atoms: _62  and  _63
REMARK   26  A    between atoms: _65  and  _67
REMARK   27  A    between atoms: _67  and  _68
REMARK   28  A    between atoms: _72  and  _73
REMARK   29  A    between atoms: _78  and  _80
REMARK   30  A    between atoms: _80  and  _81
REMARK   31  A    between atoms: _80  and  _83
REMARK   32  A    between atoms: _83  and  _84
REMARK   33  A    between atoms: _87  and  _89
REMARK   34  A    between atoms: _89  and  _90
REMARK   35  A    between atoms: _89  and  _92
REMARK   36  A    between atoms: _92  and  _93
REMARK   37  A    between atoms: _93  and  _94
REMARK   38  A    between atoms: _94  and  _95
REMARK   39  A    between atoms: _104  and  _106
REMARK   40  A    between atoms: _106  and  _107
REMARK   41  A    between atoms: _106  and  _109
REMARK   42  A    between atoms: _112  and  _114
REMARK   43  A    between atoms: _114  and  _115
REMARK   44  A    between atoms: _114  and  _117
REMARK   45  A    between atoms: _117  and  _118
REMARK   46  A    between atoms: _123  and  _124
REMARK   47  A    between atoms: _126  and  _128
REMARK   48  A    between atoms: _128  and  _129
REMARK   49  A    between atoms: _128  and  _131
REMARK   50  A    between atoms: _134  and  _136
REMARK   51  A    between atoms: _136  and  _137
REMARK   52  A    between atoms: _136  and  _139
REMARK   53  A    between atoms: _139  and  _140
REMARK   54  A    between atoms: _140  and  _141
REMARK   55  A    between atoms: _144  and  _146
REMARK   56  A    between atoms: _146  and  _147
REMARK   57  A    between atoms: _146  and  _149
REMARK   58  A    between atoms: _149  and  _150
REMARK   59  A    between atoms: _150  and  _151
REMARK   60  A    between atoms: _154  and  _156
REMARK   61  A    between atoms: _156  and  _157
REMARK   62  A    between atoms: _156  and  _159
REMARK   63  A    between atoms: _159  and  _160
REMARK   64  A    between atoms: _163  and  _165
REMARK   65  A    between atoms: _165  and  _166
REMARK   66  A    between atoms: _165  and  _168
REMARK   67  A    between atoms: _168  and  _169
REMARK   68  A    between atoms: _169  and  _170
REMARK   69  A    between atoms: _170  and  _171
REMARK   70  A    between atoms: _171  and  _172
REMARK   71  A    between atoms: _177  and  _178
REMARK   72  A    between atoms: _183  and  _185
REMARK   73  A    between atoms: _185  and  _186
REMARK   74  A    between atoms: _188  and  _190
REMARK   75  A    between atoms: _190  and  _191
REMARK   76  A    between atoms: _190  and  _193
REMARK   77  A    between atoms: _193  and  _194
REMARK   78  A    between atoms: _197  and  _199
REMARK   79  A    between atoms: _199  and  _200
REMARK   80  A    between atoms: _199  and  _202
REMARK   81  A    between atoms: _202  and  _203
REMARK   82  A    between atoms: _206  and  _208
REMARK   83  A    between atoms: _208  and  _209
REMARK   84  A    between atoms: _208  and  _211
REMARK   85  A    between atoms: _211  and  _212
REMARK   86  A    between atoms: _212  and  _213
REMARK   87  A    between atoms: _216  and  _218
REMARK   88  A    between atoms: _218  and  _219
REMARK   89  A    between atoms: _218  and  _221
REMARK   90  A    between atoms: _221  and  _222
REMARK   91  A    between atoms: _225  and  _227
REMARK   92  A    between atoms: _227  and  _228
REMARK   93  A    between atoms: _227  and  _230
REMARK   94  A    between atoms: _230  and  _231
REMARK   95  A    between atoms: _234  and  _236
REMARK   96  A    between atoms: _236  and  _237
REMARK   97  A    between atoms: _236  and  _239
REMARK   98  A    between atoms: _239  and  _240
REMARK   99  A    between atoms: _243  and  _245
REMARK  100  A    between atoms: _245  and  _246
REMARK  101  A    between atoms: _245  and  _248
REMARK  102  A    between atoms: _248  and  _249
REMARK  103  A    between atoms: _249  and  _250
REMARK  104  A    between atoms: _255  and  _257
REMARK  105  A    between atoms: _257  and  _258
REMARK  106  A    between atoms: _257  and  _260
REMARK  107  A    between atoms: _260  and  _261
REMARK  108  A    between atoms: _261  and  _262
REMARK  109  A    between atoms: _262  and  _263
REMARK  110  A    between atoms: _263  and  _264
REMARK  111  A    between atoms: _268  and  _270
REMARK  112  A    between atoms: _270  and  _271
REMARK  113  A    between atoms: _270  and  _273
REMARK  114  A    between atoms: _273  and  _274
REMARK  115  A    between atoms: _284  and  _286
REMARK  116  A    between atoms: _286  and  _287
REMARK  117  A    between atoms: _286  and  _289
REMARK  118  A    between atoms: _289  and  _290
REMARK  119  A    between atoms: _290  and  _291
REMARK  120  A    between atoms: _294  and  _296
REMARK  121  A    between atoms: _296  and  _297
REMARK  122  A    between atoms: _300  and  _302
REMARK  123  A    between atoms: _302  and  _303
REMARK  124  A    between atoms: _302  and  _305
REMARK  125  A    between atoms: _305  and  _306
REMARK  126  A    between atoms: _306  and  _307
REMARK  127  A    between atoms: _307  and  _308
REMARK  128  A    between atoms: _308  and  _309
REMARK  129  A    between atoms: _313  and  _315
REMARK  130  A    between atoms: _315  and  _316
REMARK  131  A    between atoms: _315  and  _318
REMARK  132  A    between atoms: _318  and  _319
REMARK  133  A    between atoms: _319  and  _320
REMARK  134  A    between atoms: _320  and  _321
REMARK  135  A    between atoms: _321  and  _322
REMARK  136  A    between atoms: _326  and  _328
REMARK  137  A    between atoms: _328  and  _329
REMARK  138  A    between atoms: _328  and  _331
REMARK  139  A    between atoms: _331  and  _332
REMARK  140  A    between atoms: _335  and  _337
REMARK  141  A    between atoms: _337  and  _338
REMARK  142  A    between atoms: _341  and  _343
REMARK  143  A    between atoms: _343  and  _344
REMARK  144  A    between atoms: _343  and  _346
REMARK  145  A    between atoms: _346  and  _347
REMARK  146  A    between atoms: _347  and  _348
REMARK  147  A    between atoms: _348  and  _349
REMARK  148  A    between atoms: _349  and  _350
REMARK  149  A    between atoms: _355  and  _356
REMARK  150  A    between atoms: _361  and  _363
REMARK  151  A    between atoms: _363  and  _364
REMARK  152  A    between atoms: _367  and  _369
REMARK  153  A    between atoms: _369  and  _370
REMARK  154  A    between atoms: _369  and  _372
REMARK  155  A    between atoms: _375  and  _377
REMARK  156  A    between atoms: _377  and  _378
REMARK  157  A    between atoms: _377  and  _380
REMARK  158  A    between atoms: _380  and  _381
REMARK  159  A    between atoms: _387  and  _389
REMARK  160  A    between atoms: _389  and  _390
REMARK  161  A    between atoms: _389  and  _392
REMARK  162  A    between atoms: _392  and  _393
REMARK  163  A    between atoms: _396  and  _398
REMARK  164  A    between atoms: _398  and  _399
REMARK  165  A    between atoms: _398  and  _401
REMARK  166  A    between atoms: _401  and  _402
REMARK  167  A    between atoms: _405  and  _407
REMARK  168  A    between atoms: _407  and  _408
REMARK  169  A    between atoms: _407  and  _410
REMARK  170  A    between atoms: _410  and  _411
REMARK  171  A    between atoms: _414  and  _416
REMARK  172  A    between atoms: _416  and  _417
REMARK  173  A    between atoms: _416  and  _419
REMARK  174  A    between atoms: _419  and  _420
REMARK  175  A    between atoms: _425  and  _427
REMARK  176  A    between atoms: _427  and  _428
REMARK  177  A    between atoms: _427  and  _430
REMARK  178  A    between atoms: _430  and  _431
REMARK  179  A    between atoms: _431  and  _432
REMARK  180  A    between atoms: _432  and  _433
REMARK  181  A    between atoms: _433  and  _434
REMARK  182  A    between atoms: _438  and  _440
REMARK  183  A    between atoms: _440  and  _441
REMARK  184  A    between atoms: _440  and  _443
REMARK  185  A    between atoms: _446  and  _448
REMARK  186  A    between atoms: _448  and  _449
REMARK  187  A    between atoms: _448  and  _451
REMARK  188  A    between atoms: _451  and  _452
REMARK  189  A    between atoms: _455  and  _457
REMARK  190  A    between atoms: _457  and  _458
REMARK  191  A    between atoms: _457  and  _460
REMARK  192  A    between atoms: _463  and  _465
REMARK  193  A    between atoms: _465  and  _466
REMARK  194  A    between atoms: _465  and  _468
REMARK  195  A    between atoms: _468  and  _469
REMARK  196  A    between atoms: _472  and  _474
REMARK  197  A    between atoms: _474  and  _475
REMARK  198  A    between atoms: _474  and  _477
REMARK  199  A    between atoms: _477  and  _478
REMARK  200  A    between atoms: _481  and  _483
REMARK  201  A    between atoms: _483  and  _484
REMARK  202  A    between atoms: _483  and  _486
REMARK  203  A    between atoms: _486  and  _487
REMARK  204  A    between atoms: _490  and  _492
REMARK  205  A    between atoms: _492  and  _493
REMARK  206  A    between atoms: _492  and  _495
REMARK  207  A    between atoms: _495  and  _496
REMARK  208  A    between atoms: _499  and  _501
REMARK  209  A    between atoms: _501  and  _502
REMARK  210  A    between atoms: _501  and  _504
REMARK  211  A    between atoms: _504  and  _505
REMARK  212  A    between atoms: _508  and  _510
REMARK  213  A    between atoms: _510  and  _511
REMARK  214  A    between atoms: _510  and  _513
REMARK  215  A    between atoms: _513  and  _514
REMARK  216  A    between atoms: _520  and  _522
REMARK  217  A    between atoms: _522  and  _523
REMARK  218  A    between atoms: _522  and  _525
REMARK  219  A    between atoms: _525  and  _526
REMARK  220  A    between atoms: _526  and  _558
REMARK  221  A    between atoms: _527  and  _529
REMARK  222  A    between atoms: _529  and  _530
REMARK  223  A    between atoms: _529  and  _532
REMARK  224  A    between atoms: _532  and  _533
REMARK  225  A    between atoms: _533  and  _534
REMARK  226  A    between atoms: _536  and  _538
REMARK  227  A    between atoms: _538  and  _539
REMARK  228  A    between atoms: _538  and  _541
REMARK  229  A    between atoms: _541  and  _542
REMARK  230  A    between atoms: _542  and  _543
REMARK  231  A    between atoms: _546  and  _548
REMARK  232  A    between atoms: _548  and  _549
REMARK  233  A    between atoms: _552  and  _554
REMARK  234  A    between atoms: _554  and  _555
REMARK  235  A    between atoms: _554  and  _557
REMARK  236  A    between atoms: _557  and  _558
REMARK  237  A    between atoms: _559  and  _561
REMARK  238  A    between atoms: _561  and  _562
REMARK  239  A    between atoms: _561  and  _564
REMARK  240  A    between atoms: _564  and  _565
REMARK  241  A    between atoms: _565  and  _566
REMARK  242  A    between atoms: _571  and  _573
REMARK  243  A    between atoms: _573  and  _574
REMARK  244  A    between atoms: _573  and  _576
REMARK  245  A    between atoms: _576  and  _577
REMARK                            x       y       z     vdW  Elec       q    Type
REMARK                         _______ _______ _______ _____ _____    ______ ____
ROOT
ATOM      1  CA  ILE A   1      -4.274  22.851   9.996  0.00  0.00    +0.133 C 
ENDROOT
BRANCH   1   2
ATOM      2  N   ILE A   1      -5.145  23.938   9.517  0.00  0.00    -0.239 NA
ATOM      3  H   ILE A   1      -5.867  23.723   8.800  0.00  0.00    +0.142 HD
ENDBRANCH   1   2
BRANCH   1   4
ATOM      4  C   ILE A   1      -2.777  23.084   9.811  0.00  0.00    +0.224 C 
ATOM      5  O   ILE A   1      -1.979  22.541  10.578  0.00  0.00    -0.287 OA
ENDBRANCH   1   4
BRANCH   1   6
ATOM      6  CB  ILE A   1      -4.660  21.454   9.432  0.00  0.00    +0.023 C 
ATOM      7  CG2 ILE A   1      -4.214  21.278   7.964  0.00  0.00    +0.002 C 
BRANCH   6   8
ATOM      8  CG1 ILE A   1      -4.062  20.326  10.280  0.00  0.00    +0.002 C 
ATOM      9  CD1 ILE A   1      -4.598  20.231  11.690  0.00  0.00    +0.000 C 
ENDBRANCH   6   8
ENDBRANCH   1   6
TORSDOF 4
REMARK  Name = ../refined-set-2016/3uex/3uex_pocket.pdb
REMARK  245 active torsions:
REMARK  status: ('A' for Active; 'I' for Inactive)
REMARK    1  A    between atoms: _1  and  _3
REMARK    2  A    between atoms: _3  and  _4
REMARK    3  A    between atoms: _3  and  _6
REMARK    4  A    between atoms: _6  and  _7
REMARK    5  A    between atoms: _10  and  _12
REMARK    6  A    between atoms: _12  and  _13
REMARK    7  A    between atoms: _12  and  _15
REMARK    8  A    between atoms: _15  and  _16
REMARK    9  A    between atoms: _19  and  _21
REMARK   10  A    between atoms: _21  and  _22
REMARK   11  A    between atoms: _21  and  _24
REMARK   12  A    between atoms: _27  and  _29
REMARK   13  A    between atoms: _29  and  _30
REMARK   14  A    between atoms: _33  and  _35
REMARK   15  A    between atoms: _35  and  _36
REMARK   16  A    between atoms: _35  and  _38
REMARK   17  A    between atoms: _38  and  _39
REMARK   18  A    between atoms: _49  and  _51
REMARK   19  A    between atoms: _51  and  _52
REMARK   20  A    between atoms: _51  and  _54
REMARK   21  A    between atoms: _54  and  _55
REMARK   22  A    between atoms: _57  and  _59
REMARK   23  A    between atoms: _59  and  _60
REMARK   24  A    between atoms: _59  and  _62
REMARK   25  A    between atoms: _62  and  _63
REMARK   26  A    between atoms: _65  and  _67
REMARK   27  A    between atoms: _67  and  _68
REMARK   28  A    between atoms: _72  and  _73
REMARK   29  A    between atoms: _78  and  _80
REMARK   30  A    between atoms: _80  and  _81
REMARK   31  A    between atoms: _80  and  _83
REMARK   32  A    between atoms: _83  and  _84
REMARK   33  A    between atoms: _87  and  _89
REMARK   34  A    between atoms: _89  and  _90
REMARK   35  A    between atoms: _89  and  _92
REMARK   36  A    between atoms: _92  and  _93
REMARK   37  A    between atoms: _93  and  _94
REMARK   38  A    between atoms: _94  and  _95
REMARK   39  A    between atoms: _104  and  _106
REMARK   40  A    between atoms: _106  and  _107
REMARK   41  A    between atoms: _106  and  _109
REMARK   42  A    between atoms: _112  and  _114
REMARK   43  A    between atoms: _114  and  _115
REMARK   44  A    between atoms: _114  and  _117
REMARK   45  A    between atoms: _117  and  _118
REMARK   46  A    between atoms: _123  and  _124
REMARK   47  A    between atoms: _126  and  _128
REMARK   48  A    between atoms: _128  and  _129
REMARK   49  A    between atoms: _128  and  _131
REMARK   50  A    between atoms: _134  and  _136
REMARK   51  A    between atoms: _136  and  _137
REMARK   52  A    between atoms: _136  and  _139
REMARK   53  A    between atoms: _139  and  _140
REMARK   54  A    between atoms: _140  and  _141
REMARK   55  A    between atoms: _144  and  _146
REMARK   56  A    between atoms: _146  and  _147
REMARK   57  A    between atoms: _146  and  _149
REMARK   58  A    between atoms: _149  and  _150
REMARK   59  A    between atoms: _150  and  _151
REMARK   60  A    between atoms: _154  and  _156
REMARK   61  A    between atoms: _156  and  _157
REMARK   62  A    between atoms: _156  and  _159
REMARK   63  A    between atoms: _159  and  _160
REMARK   64  A    between atoms: _163  and  _165
REMARK   65  A    between atoms: _165  and  _166
REMARK   66  A    between atoms: _165  and  _168
REMARK   67  A    between atoms: _168  and  _169
REMARK   68  A    between atoms: _169  and  _170
REMARK   69  A    between atoms: _170  and  _171
REMARK   70  A    between atoms: _171  and  _172
REMARK   71  A    between atoms: _177  and  _178
REMARK   72  A    between atoms: _183  and  _185
REMARK   73  A    between atoms: _185  and  _186
REMARK   74  A    between atoms: _188  and  _190
REMARK   75  A    between atoms: _190  and  _191
REMARK   76  A    between atoms: _190  and  _193
REMARK   77  A    between atoms: _193  and  _194
REMARK   78  A    between atoms: _197  and  _199
REMARK   79  A    between atoms: _199  and  _200
REMARK   80  A    between atoms: _199  and  _202
REMARK   81  A    between atoms: _202  and  _203
REMARK   82  A    between atoms: _206  and  _208
REMARK   83  A    between atoms: _208  and  _209
REMARK   84  A    between atoms: _208  and  _211
REMARK   85  A    between atoms: _211  and  _212
REMARK   86  A    between atoms: _212  and  _213
REMARK   87  A    between atoms: _216  and  _218
REMARK   88  A    between atoms: _218  and  _219
REMARK   89  A    between atoms: _218  and  _221
REMARK   90  A    between atoms: _221  and  _222
REMARK   91  A    between atoms: _225  and  _227
REMARK   92  A    between atoms: _227  and  _228
REMARK   93  A    between atoms: _227  and  _230
REMARK   94  A    between atoms: _230  and  _231
REMARK   95  A    between atoms: _234  and  _236
REMARK   96  A    between atoms: _236  and  _237
REMARK   97  A    between atoms: _236  and  _239
REMARK   98  A    between atoms: _239  and  _240
REMARK   99  A    between atoms: _243  and  _245
REMARK  100  A    between atoms: _245  and  _246
REMARK  101  A    between atoms: _245  and  _248
REMARK  102  A    between atoms: _248  and  _249
REMARK  103  A    between atoms: _249  and  _250
REMARK  104  A    between atoms: _255  and  _257
REMARK  105  A    between atoms: _257  and  _258
REMARK  106  A    between atoms: _257  and  _260
REMARK  107  A    between atoms: _260  and  _261
REMARK  108  A    between atoms: _261  and  _262
REMARK  109  A    between atoms: _262  and  _263
REMARK  110  A    between atoms: _263  and  _264
REMARK  111  A    between atoms: _268  and  _270
REMARK  112  A    between atoms: _270  and  _271
REMARK  113  A    between atoms: _270  and  _273
REMARK  114  A    between atoms: _273  and  _274
REMARK  115  A    between atoms: _284  and  _286
REMARK  116  A    between atoms: _286  and  _287
REMARK  117  A    between atoms: _286  and  _289
REMARK  118  A    between atoms: _289  and  _290
REMARK  119  A    between atoms: _290  and  _291
REMARK  120  A    between atoms: _294  and  _296
REMARK  121  A    between atoms: _296  and  _297
REMARK  122  A    between atoms: _300  and  _302
REMARK  123  A    between atoms: _302  and  _303
REMARK  124  A    between atoms: _302  and  _305
REMARK  125  A    between atoms: _305  and  _306
REMARK  126  A    between atoms: _306  and  _307
REMARK  127  A    between atoms: _307  and  _308
REMARK  128  A    between atoms: _308  and  _309
REMARK  129  A    between atoms: _313  and  _315
REMARK  130  A    between atoms: _315  and  _316
REMARK  131  A    between atoms: _315  and  _318
REMARK  132  A    between atoms: _318  and  _319
REMARK  133  A    between atoms: _319  and  _320
REMARK  134  A    between atoms: _320  and  _321
REMARK  135  A    between atoms: _321  and  _322
REMARK  136  A    between atoms: _326  and  _328
REMARK  137  A    between atoms: _328  and  _329
REMARK  138  A    between atoms: _328  and  _331
REMARK  139  A    between atoms: _331  and  _332
REMARK  140  A    between atoms: _335  and  _337
REMARK  141  A    between atoms: _337  and  _338
REMARK  142  A    between atoms: _341  and  _343
REMARK  143  A    between atoms: _343  and  _344
REMARK  144  A    between atoms: _343  and  _346
REMARK  145  A    between atoms: _346  and  _347
REMARK  146  A    between atoms: _347  and  _348
REMARK  147  A    between atoms: _348  and  _349
REMARK  148  A    between atoms: _349  and  _350
REMARK  149  A    between atoms: _355  and  _356
REMARK  150  A    between atoms: _361  and  _363
REMARK  151  A    between atoms: _363  and  _364
REMARK  152  A    between atoms: _367  and  _369
REMARK  153  A    between atoms: _369  and  _370
REMARK  154  A    between atoms: _369  and  _372
REMARK  155  A    between atoms: _375  and  _377
REMARK  156  A    between atoms: _377  and  _378
REMARK  157  A    between atoms: _377  and  _380
REMARK  158  A    between atoms: _380  and  _381
REMARK  159  A    between atoms: _387  and  _389
REMARK  160  A    between atoms: _389  and  _390
REMARK  161  A    between atoms: _389  and  _392
REMARK  162  A    between atoms: _392  and  _393
REMARK  163  A    between atoms: _396  and  _398
REMARK  164  A    between atoms: _398  and  _399
REMARK  165  A    between atoms: _398  and  _401
REMARK  166  A    between atoms: _401  and  _402
REMARK  167  A    between atoms: _405  and  _407
REMARK  168  A    between atoms: _407  and  _408
REMARK  169  A    between atoms: _407  and  _410
REMARK  170  A    between atoms: _410  and  _411
REMARK  171  A    between atoms: _414  and  _416
REMARK  172  A    between atoms: _416  and  _417
REMARK  173  A    between atoms: _416  and  _419
REMARK  174  A    between atoms: _419  and  _420
REMARK  175  A    between atoms: _425  and  _427
REMARK  176  A    between atoms: _427  and  _428
REMARK  177  A    between atoms: _427  and  _430
REMARK  178  A    between atoms: _430  and  _431
REMARK  179  A    between atoms: _431  and  _432
REMARK  180  A    between atoms: _432  and  _433
REMARK  181  A    between atoms: _433  and  _434
REMARK  182  A    between atoms: _438  and  _440
REMARK  183  A    between atoms: _440  and  _441
REMARK  184  A    between atoms: _440  and  _443
REMARK  185  A    between atoms: _446  and  _448
REMARK  186  A    between atoms: _448  and  _449
REMARK  187  A    between atoms: _448  and  _451
REMARK  188  A    between atoms: _451  and  _452
REMARK  189  A    between atoms: _455  and  _457
REMARK  190  A    between atoms: _457  and  _458
REMARK  191  A    between atoms: _457  and  _460
REMARK  192  A    between atoms: _463  and  _465
REMARK  193  A    between atoms: _465  and  _466
REMARK  194  A    between atoms: _465  and  _468
REMARK  195  A    between atoms: _468  and  _469
REMARK  196  A    between atoms: _472  and  _474
REMARK  197  A    between atoms: _474  and  _475
REMARK  198  A    between atoms: _474  and  _477
REMARK  199  A    between atoms: _477  and  _478
REMARK  200  A    between atoms: _481  and  _483
REMARK  201  A    between atoms: _483  and  _484
REMARK  202  A    between atoms: _483  and  _486
REMARK  203  A    between atoms: _486  and  _487
REMARK  204  A    between atoms: _490  and  _492
REMARK  205  A    between atoms: _492  and  _493
REMARK  206  A    between atoms: _492  and  _495
REMARK  207  A    between atoms: _495  and  _496
REMARK  208  A    between atoms: _499  and  _501
REMARK  209  A    between atoms: _501  and  _502
REMARK  210  A    between atoms: _501  and  _504
REMARK  211  A    between atoms: _504  and  _505
REMARK  212  A    between atoms: _508  and  _510
REMARK  213  A    between atoms: _510  and  _511
REMARK  214  A    between atoms: _510  and  _513
REMARK  215  A    between atoms: _513  and  _514
REMARK  216  A    between atoms: _520  and  _522
REMARK  217  A    between atoms: _522  and  _523
REMARK  218  A    between atoms: _522  and  _525
REMARK  219  A    between atoms: _525  and  _526
REMARK  220  A    between atoms: _526  and  _558
REMARK  221  A    between atoms: _527  and  _529
REMARK  222  A    between atoms: _529  and  _530
REMARK  223  A    between atoms: _529  and  _532
REMARK  224  A    between atoms: _532  and  _533
REMARK  225  A    between atoms: _533  and  _534
REMARK  226  A    between atoms: _536  and  _538
REMARK  227  A    between atoms: _538  and  _539
REMARK  228  A    between atoms: _538  and  _541
REMARK  229  A    between atoms: _541  and  _542
REMARK  230  A    between atoms: _542  and  _543
REMARK  231  A    between atoms: _546  and  _548
REMARK  232  A    between atoms: _548  and  _549
REMARK  233  A    between atoms: _552  and  _554
REMARK  234  A    between atoms: _554  and  _555
REMARK  235  A    between atoms: _554  and  _557
REMARK  236  A    between atoms: _557  and  _558
REMARK  237  A    between atoms: _559  and  _561
REMARK  238  A    between atoms: _561  and  _562
REMARK  239  A    between atoms: _561  and  _564
REMARK  240  A    between atoms: _564  and  _565
REMARK  241  A    between atoms: _565  and  _566
REMARK  242  A    between atoms: _571  and  _573
REMARK  243  A    between atoms: _573  and  _574
REMARK  244  A    between atoms: _573  and  _576
REMARK  245  A    between atoms: _576  and  _577
REMARK                            x       y       z     vdW  Elec       q    Type
REMARK                         _______ _______ _______ _____ _____    ______ ____
ROOT
ATOM      1  C   VAL A   1       0.608  23.151  14.081  0.00  0.00    +0.238 C 
ATOM      2  O   VAL A   1       1.004  22.476  15.039  0.00  0.00    -0.274 OA
ATOM      3  N   ALA A   2       1.312  23.251  12.956  0.00  0.00    -0.298 N 
ATOM      4  H   ALA A   2       0.967  23.853  12.181  0.00  0.00    +0.150 HD
ENDROOT
BRANCH   3   5
ATOM      5  CA  ALA A   2       2.568  22.519  12.804  0.00  0.00    +0.137 C 
ATOM      6  CB  ALA A   2       3.171  22.782  11.435  0.00  0.00    +0.030 C 
BRANCH   5   7
ATOM      7  C   ALA A   2       3.559  22.888  13.903  0.00  0.00    +0.227 C 
ATOM      8  O   ALA A   2       3.534  24.001  14.441  0.00  0.00    -0.286 OA
ENDBRANCH   5   7
ENDBRANCH   3   5
BRANCH   1   9
ATOM      9  CA  VAL A   1      -0.722  23.956  14.150  0.00  0.00    +0.145 C 
BRANCH   9  10
ATOM     10  CB  VAL A   1      -1.890  23.010  14.541  0.00  0.00    +0.025 C 
ATOM     11  CG2 VAL A   1      -3.180  23.768  14.592  0.00  0.00    +0.002 C 
ATOM     12  CG1 VAL A   1      -1.968  21.778  13.614  0.00  0.00    +0.002 C 
ENDBRANCH   9  10
BRANCH   9  13
ATOM     13  N   VAL A   1      -0.999  24.750  12.923  0.00  0.00    -0.238 NA
ATOM     14  H   VAL A   1      -1.478  24.293  12.121  0.00  0.00    +0.142 HD
ENDBRANCH   9  13
ENDBRANCH   1   9
TORSDOF 5
REMARK  Name = ../refined-set-2016/3uex/3uex_pocket.pdb
REMARK  245 active torsions:
REMARK  status: ('A' for Active; 'I' for Inactive)
REMARK    1  A    between atoms: _1  and  _3
REMARK    2  A    between atoms: _3  and  _4
REMARK    3  A    between atoms: _3  and  _6
REMARK    4  A    between atoms: _6  and  _7
REMARK    5  A    between atoms: _10  and  _12
REMARK    6  A    between atoms: _12  and  _13
REMARK    7  A    between atoms: _12  and  _15
REMARK    8  A    between atoms: _15  and  _16
REMARK    9  A    between atoms: _19  and  _21
REMARK   10  A    between atoms: _21  and  _22
REMARK   11  A    between atoms: _21  and  _24
REMARK   12  A    between atoms: _27  and  _29
REMARK   13  A    between atoms: _29  and  _30
REMARK   14  A    between atoms: _33  and  _35
REMARK   15  A    between atoms: _35  and  _36
REMARK   16  A    between atoms: _35  and  _38
REMARK   17  A    between atoms: _38  and  _39
REMARK   18  A    between atoms: _49  and  _51
REMARK   19  A    between atoms: _51  and  _52
REMARK   20  A    between atoms: _51  and  _54
REMARK   21  A    between atoms: _54  and  _55
REMARK   22  A    between atoms: _57  and  _59
REMARK   23  A    between atoms: _59  and  _60
REMARK   24  A    between atoms: _59  and  _62
REMARK   25  A    between atoms: _62  and  _63
REMARK   26  A    between atoms: _65  and  _67
REMARK   27  A    between atoms: _67  and  _68
REMARK   28  A    between atoms: _72  and  _73
REMARK   29  A    between atoms: _78  and  _80
REMARK   30  A    between atoms: _80  and  _81
REMARK   31  A    between atoms: _80  and  _83
REMARK   32  A    between atoms: _83  and  _84
REMARK   33  A    between atoms: _87  and  _89
REMARK   34  A    between atoms: _89  and  _90
REMARK   35  A    between atoms: _89  and  _92
REMARK   36  A    between atoms: _92  and  _93
REMARK   37  A    between atoms: _93  and  _94
REMARK   38  A    between atoms: _94  and  _95
REMARK   39  A    between atoms: _104  and  _106
REMARK   40  A    between atoms: _106  and  _107
REMARK   41  A    between atoms: _106  and  _109
REMARK   42  A    between atoms: _112  and  _114
REMARK   43  A    between atoms: _114  and  _115
REMARK   44  A    between atoms: _114  and  _117
REMARK   45  A    between atoms: _117  and  _118
REMARK   46  A    between atoms: _123  and  _124
REMARK   47  A    between atoms: _126  and  _128
REMARK   48  A    between atoms: _128  and  _129
REMARK   49  A    between atoms: _128  and  _131
REMARK   50  A    between atoms: _134  and  _136
REMARK   51  A    between atoms: _136  and  _137
REMARK   52  A    between atoms: _136  and  _139
REMARK   53  A    between atoms: _139  and  _140
REMARK   54  A    between atoms: _140  and  _141
REMARK   55  A    between atoms: _144  and  _146
REMARK   56  A    between atoms: _146  and  _147
REMARK   57  A    between atoms: _146  and  _149
REMARK   58  A    between atoms: _149  and  _150
REMARK   59  A    between atoms: _150  and  _151
REMARK   60  A    between atoms: _154  and  _156
REMARK   61  A    between atoms: _156  and  _157
REMARK   62  A    between atoms: _156  and  _159
REMARK   63  A    between atoms: _159  and  _160
REMARK   64  A    between atoms: _163  and  _165
REMARK   65  A    between atoms: _165  and  _166
REMARK   66  A    between atoms: _165  and  _168
REMARK   67  A    between atoms: _168  and  _169
REMARK   68  A    between atoms: _169  and  _170
REMARK   69  A    between atoms: _170  and  _171
REMARK   70  A    between atoms: _171  and  _172
REMARK   71  A    between atoms: _177  and  _178
REMARK   72  A    between atoms: _183  and  _185
REMARK   73  A    between atoms: _185  and  _186
REMARK   74  A    between atoms: _188  and  _190
REMARK   75  A    between atoms: _190  and  _191
REMARK   76  A    between atoms: _190  and  _193
REMARK   77  A    between atoms: _193  and  _194
REMARK   78  A    between atoms: _197  and  _199
REMARK   79  A    between atoms: _199  and  _200
REMARK   80  A    between atoms: _199  and  _202
REMARK   81  A    between atoms: _202  and  _203
REMARK   82  A    between atoms: _206  and  _208
REMARK   83  A    between atoms: _208  and  _209
REMARK   84  A    between atoms: _208  and  _211
REMARK   85  A    between atoms: _211  and  _212
REMARK   86  A    between atoms: _212  and  _213
REMARK   87  A    between atoms: _216  and  _218
REMARK   88  A    between atoms: _218  and  _219
REMARK   89  A    between atoms: _218  and  _221
REMARK   90  A    between atoms: _221  and  _222
REMARK   91  A    between atoms: _225  and  _227
REMARK   92  A    between atoms: _227  and  _228
REMARK   93  A    between atoms: _227  and  _230
REMARK   94  A    between atoms: _230  and  _231
REMARK   95  A    between atoms: _234  and  _236
REMARK   96  A    between atoms: _236  and  _237
REMARK   97  A    between atoms: _236  and  _239
REMARK   98  A    between atoms: _239  and  _240
REMARK   99  A    between atoms: _243  and  _245
REMARK  100  A    between atoms: _245  and  _246
REMARK  101  A    between atoms: _245  and  _248
REMARK  102  A    between atoms: _248  and  _249
REMARK  103  A    between atoms: _249  and  _250
REMARK  104  A    between atoms: _255  and  _257
REMARK  105  A    between atoms: _257  and  _258
REMARK  106  A    between atoms: _257  and  _260
REMARK  107  A    between atoms: _260  and  _261
REMARK  108  A    between atoms: _261  and  _262
REMARK  109  A    between atoms: _262  and  _263
REMARK  110  A    between atoms: _263  and  _264
REMARK  111  A    between atoms: _268  and  _270
REMARK  112  A    between atoms: _270  and  _271
REMARK  113  A    between atoms: _270  and  _273
REMARK  114  A    between atoms: _273  and  _274
REMARK  115  A    between atoms: _284  and  _286
REMARK  116  A    between atoms: _286  and  _287
REMARK  117  A    between atoms: _286  and  _289
REMARK  118  A    between atoms: _289  and  _290
REMARK  119  A    between atoms: _290  and  _291
REMARK  120  A    between atoms: _294  and  _296
REMARK  121  A    between atoms: _296  and  _297
REMARK  122  A    between atoms: _300  and  _302
REMARK  123  A    between atoms: _302  and  _303
REMARK  124  A    between atoms: _302  and  _305
REMARK  125  A    between atoms: _305  and  _306
REMARK  126  A    between atoms: _306  and  _307
REMARK  127  A    between atoms: _307  and  _308
REMARK  128  A    between atoms: _308  and  _309
REMARK  129  A    between atoms: _313  and  _315
REMARK  130  A    between atoms: _315  and  _316
REMARK  131  A    between atoms: _315  and  _318
REMARK  132  A    between atoms: _318  and  _319
REMARK  133  A    between atoms: _319  and  _320
REMARK  134  A    between atoms: _320  and  _321
REMARK  135  A    between atoms: _321  and  _322
REMARK  136  A    between atoms: _326  and  _328
REMARK  137  A    between atoms: _328  and  _329
REMARK  138  A    between atoms: _328  and  _331
REMARK  139  A    between atoms: _331  and  _332
REMARK  140  A    between atoms: _335  and  _337
REMARK  141  A    between atoms: _337  and  _338
REMARK  142  A    between atoms: _341  and  _343
REMARK  143  A    between atoms: _343  and  _344
REMARK  144  A    between atoms: _343  and  _346
REMARK  145  A    between atoms: _346  and  _347
REMARK  146  A    between atoms: _347  and  _348
REMARK  147  A    between atoms: _348  and  _349
REMARK  148  A    between atoms: _349  and  _350
REMARK  149  A    between atoms: _355  and  _356
REMARK  150  A    between atoms: _361  and  _363
REMARK  151  A    between atoms: _363  and  _364
REMARK  152  A    between atoms: _367  and  _369
REMARK  153  A    between atoms: _369  and  _370
REMARK  154  A    between atoms: _369  and  _372
REMARK  155  A    between atoms: _375  and  _377
REMARK  156  A    between atoms: _377  and  _378
REMARK  157  A    between atoms: _377  and  _380
REMARK  158  A    between atoms: _380  and  _381
REMARK  159  A    between atoms: _387  and  _389
REMARK  160  A    between atoms: _389  and  _390
REMARK  161  A    between atoms: _389  and  _392
REMARK  162  A    between atoms: _392  and  _393
REMARK  163  A    between atoms: _396  and  _398
REMARK  164  A    between atoms: _398  and  _399
REMARK  165  A    between atoms: _398  and  _401
REMARK  166  A    between atoms: _401  and  _402
REMARK  167  A    between atoms: _405  and  _407
REMARK  168  A    between atoms: _407  and  _408
REMARK  169  A    between atoms: _407  and  _410
REMARK  170  A    between atoms: _410  and  _411
REMARK  171  A    between atoms: _414  and  _416
REMARK  172  A    between atoms: _416  and  _417
REMARK  173  A    between atoms: _416  and  _419
REMARK  174  A    between atoms: _419  and  _420
REMARK  175  A    between atoms: _425  and  _427
REMARK  176  A    between atoms: _427  and  _428
REMARK  177  A    between atoms: _427  and  _430
REMARK  178  A    between atoms: _430  and  _431
REMARK  179  A    between atoms: _431  and  _432
REMARK  180  A    between atoms: _432  and  _433
REMARK  181  A    between atoms: _433  and  _434
REMARK  182  A    between atoms: _438  and  _440
REMARK  183  A    between atoms: _440  and  _441
REMARK  184  A    between atoms: _440  and  _443
REMARK  185  A    between atoms: _446  and  _448
REMARK  186  A    between atoms: _448  and  _449
REMARK  187  A    between atoms: _448  and  _451
REMARK  188  A    between atoms: _451  and  _452
REMARK  189  A    between atoms: _455  and  _457
REMARK  190  A    between atoms: _457  and  _458
REMARK  191  A    between atoms: _457  and  _460
REMARK  192  A    between atoms: _463  and  _465
REMARK  193  A    between atoms: _465  and  _466
REMARK  194  A    between atoms: _465  and  _468
REMARK  195  A    between atoms: _468  and  _469
REMARK  196  A    between atoms: _472  and  _474
REMARK  197  A    between atoms: _474  and  _475
REMARK  198  A    between atoms: _474  and  _477
REMARK  199  A    between atoms: _477  and  _478
REMARK  200  A    between atoms: _481  and  _483
REMARK  201  A    between atoms: _483  and  _484
REMARK  202  A    between atoms: _483  and  _486
REMARK  203  A    between atoms: _486  and  _487
REMARK  204  A    between atoms: _490  and  _492
REMARK  205  A    between atoms: _492  and  _493
REMARK  206  A    between atoms: _492  and  _495
REMARK  207  A    between atoms: _495  and  _496
REMARK  208  A    between atoms: _499  and  _501
REMARK  209  A    between atoms: _501  and  _502
REMARK  210  A    between atoms: _501  and  _504
REMARK  211  A    between atoms: _504  and  _505
REMARK  212  A    between atoms: _508  and  _510
REMARK  213  A    between atoms: _510  and  _511
REMARK  214  A    between atoms: _510  and  _513
REMARK  215  A    between atoms: _513  and  _514
REMARK  216  A    between atoms: _520  and  _522
REMARK  217  A    between atoms: _522  and  _523
REMARK  218  A    between atoms: _522  and  _525
REMARK  219  A    between atoms: _525  and  _526
REMARK  220  A    between atoms: _526  and  _558
REMARK  221  A    between atoms: _527  and  _529
REMARK  222  A    between atoms: _529  and  _530
REMARK  223  A    between atoms: _529  and  _532
REMARK  224  A    between atoms: _532  and  _533
REMARK  225  A    between atoms: _533  and  _534
REMARK  226  A    between atoms: _536  and  _538
REMARK  227  A    between atoms: _538  and  _539
REMARK  228  A    between atoms: _538  and  _541
REMARK  229  A    between atoms: _541  and  _542
REMARK  230  A    between atoms: _542  and  _543
REMARK  231  A    between atoms: _546  and  _548
REMARK  232  A    between atoms: _548  and  _549
REMARK  233  A    between atoms: _552  and  _554
REMARK  234  A    between atoms: _554  and  _555
REMARK  235  A    between atoms: _554  and  _557
REMARK  236  A    between atoms: _557  and  _558
REMARK  237  A    between atoms: _559  and  _561
REMARK  238  A    between atoms: _561  and  _562
REMARK  239  A    between atoms: _561  and  _564
REMARK  240  A    between atoms: _564  and  _565
REMARK  241  A    between atoms: _565  and  _566
REMARK  242  A    between atoms: _571  and  _573
REMARK  243  A    between atoms: _573  and  _574
REMARK  244  A    between atoms: _573  and  _576
REMARK  245  A    between atoms: _576  and  _577
REMARK                            x       y       z     vdW  Elec       q    Type
REMARK                         _______ _______ _______ _____ _____    ______ ____
ROOT
ATOM      1  CG  TRP A   1       1.610  21.389  19.908  0.00  0.00    -0.002 A 
ATOM      2  CD2 TRP A   1       0.811  22.581  20.041  0.00  0.00    +0.013 A 
ATOM      3  CE3 TRP A   1       0.319  23.303  21.140  0.00  0.00    +0.001 A 
ATOM      4  CZ3 TRP A   1      -0.422  24.429  20.908  0.00  0.00    +0.000 A 
ATOM      5  CH2 TRP A   1      -0.712  24.860  19.596  0.00  0.00    +0.001 A 
ATOM      6  CZ2 TRP A   1      -0.258  24.181  18.499  0.00  0.00    +0.017 A 
ATOM      7  CE2 TRP A   1       0.512  23.037  18.735  0.00  0.00    +0.056 A 
ATOM      8  NE1 TRP A   1       1.093  22.164  17.855  0.00  0.00    -0.352 N 
ATOM      9  HE1 TRP A   1       1.059  22.238  16.818  0.00  0.00    +0.166 HD
ATOM     10  CD1 TRP A   1       1.736  21.161  18.575  0.00  0.00    +0.068 A 
ENDROOT
BRANCH   1  11
ATOM     11  CB  TRP A   1       2.139  20.546  21.024  0.00  0.00    +0.053 C 
BRANCH  11  12
ATOM     12  CA  TRP A   1       3.571  20.905  21.491  0.00  0.00    +0.137 C 
BRANCH  12  13
ATOM     13  N   TRP A   1       4.542  20.745  20.391  0.00  0.00    -0.239 NA
ATOM     14  H   TRP A   1       4.865  19.799  20.105  0.00  0.00    +0.142 HD
ENDBRANCH  12  13
BRANCH  12  15
ATOM     15  C   TRP A   1       3.914  20.122  22.757  0.00  0.00    +0.224 C 
ATOM     16  O   TRP A   1       4.605  19.119  22.698  0.00  0.00    -0.287 OA
ENDBRANCH  12  15
ENDBRANCH  11  12
ENDBRANCH   1  11
TORSDOF 4
REMARK  Name = ../refined-set-2016/3uex/3uex_pocket.pdb
REMARK  245 active torsions:
REMARK  status: ('A' for Active; 'I' for Inactive)
REMARK    1  A    between atoms: _1  and  _3
REMARK    2  A    between atoms: _3  and  _4
REMARK    3  A    between atoms: _3  and  _6
REMARK    4  A    between atoms: _6  and  _7
REMARK    5  A    between atoms: _10  and  _12
REMARK    6  A    between atoms: _12  and  _13
REMARK    7  A    between atoms: _12  and  _15
REMARK    8  A    between atoms: _15  and  _16
REMARK    9  A    between atoms: _19  and  _21
REMARK   10  A    between atoms: _21  and  _22
REMARK   11  A    between atoms: _21  and  _24
REMARK   12  A    between atoms: _27  and  _29
REMARK   13  A    between atoms: _29  and  _30
REMARK   14  A    between atoms: _33  and  _35
REMARK   15  A    between atoms: _35  and  _36
REMARK   16  A    between atoms: _35  and  _38
REMARK   17  A    between atoms: _38  and  _39
REMARK   18  A    between atoms: _49  and  _51
REMARK   19  A    between atoms: _51  and  _52
REMARK   20  A    between atoms: _51  and  _54
REMARK   21  A    between atoms: _54  and  _55
REMARK   22  A    between atoms: _57  and  _59
REMARK   23  A    between atoms: _59  and  _60
REMARK   24  A    between atoms: _59  and  _62
REMARK   25  A    between atoms: _62  and  _63
REMARK   26  A    between atoms: _65  and  _67
REMARK   27  A    between atoms: _67  and  _68
REMARK   28  A    between atoms: _72  and  _73
REMARK   29  A    between atoms: _78  and  _80
REMARK   30  A    between atoms: _80  and  _81
REMARK   31  A    between atoms: _80  and  _83
REMARK   32  A    between atoms: _83  and  _84
REMARK   33  A    between atoms: _87  and  _89
REMARK   34  A    between atoms: _89  and  _90
REMARK   35  A    between atoms: _89  and  _92
REMARK   36  A    between atoms: _92  and  _93
REMARK   37  A    between atoms: _93  and  _94
REMARK   38  A    between atoms: _94  and  _95
REMARK   39  A    between atoms: _104  and  _106
REMARK   40  A    between atoms: _106  and  _107
REMARK   41  A    between atoms: _106  and  _109
REMARK   42  A    between atoms: _112  and  _114
REMARK   43  A    between atoms: _114  and  _115
REMARK   44  A    between atoms: _114  and  _117
REMARK   45  A    between atoms: _117  and  _118
REMARK   46  A    between atoms: _123  and  _124
REMARK   47  A    between atoms: _126  and  _128
REMARK   48  A    between atoms: _128  and  _129
REMARK   49  A    between atoms: _128  and  _131
REMARK   50  A    between atoms: _134  and  _136
REMARK   51  A    between atoms: _136  and  _137
REMARK   52  A    between atoms: _136  and  _139
REMARK   53  A    between atoms: _139  and  _140
REMARK   54  A    between atoms: _140  and  _141
REMARK   55  A    between atoms: _144  and  _146
REMARK   56  A    between atoms: _146  and  _147
REMARK   57  A    between atoms: _146  and  _149
REMARK   58  A    between atoms: _149  and  _150
REMARK   59  A    between atoms: _150  and  _151
REMARK   60  A    between atoms: _154  and  _156
REMARK   61  A    between atoms: _156  and  _157
REMARK   62  A    between atoms: _156  and  _159
REMARK   63  A    between atoms: _159  and  _160
REMARK   64  A    between atoms: _163  and  _165
REMARK   65  A    between atoms: _165  and  _166
REMARK   66  A    between atoms: _165  and  _168
REMARK   67  A    between atoms: _168  and  _169
REMARK   68  A    between atoms: _169  and  _170
REMARK   69  A    between atoms: _170  and  _171
REMARK   70  A    between atoms: _171  and  _172
REMARK   71  A    between atoms: _177  and  _178
REMARK   72  A    between atoms: _183  and  _185
REMARK   73  A    between atoms: _185  and  _186
REMARK   74  A    between atoms: _188  and  _190
REMARK   75  A    between atoms: _190  and  _191
REMARK   76  A    between atoms: _190  and  _193
REMARK   77  A    between atoms: _193  and  _194
REMARK   78  A    between atoms: _197  and  _199
REMARK   79  A    between atoms: _199  and  _200
REMARK   80  A    between atoms: _199  and  _202
REMARK   81  A    between atoms: _202  and  _203
REMARK   82  A    between atoms: _206  and  _208
REMARK   83  A    between atoms: _208  and  _209
REMARK   84  A    between atoms: _208  and  _211
REMARK   85  A    between atoms: _211  and  _212
REMARK   86  A    between atoms: _212  and  _213
REMARK   87  A    between atoms: _216  and  _218
REMARK   88  A    between atoms: _218  and  _219
REMARK   89  A    between atoms: _218  and  _221
REMARK   90  A    between atoms: _221  and  _222
REMARK   91  A    between atoms: _225  and  _227
REMARK   92  A    between atoms: _227  and  _228
REMARK   93  A    between atoms: _227  and  _230
REMARK   94  A    between atoms: _230  and  _231
REMARK   95  A    between atoms: _234  and  _236
REMARK   96  A    between atoms: _236  and  _237
REMARK   97  A    between atoms: _236  and  _239
REMARK   98  A    between atoms: _239  and  _240
REMARK   99  A    between atoms: _243  and  _245
REMARK  100  A    between atoms: _245  and  _246
REMARK  101  A    between atoms: _245  and  _248
REMARK  102  A    between atoms: _248  and  _249
REMARK  103  A    between atoms: _249  and  _250
REMARK  104  A    between atoms: _255  and  _257
REMARK  105  A    between atoms: _257  and  _258
REMARK  106  A    between atoms: _257  and  _260
REMARK  107  A    between atoms: _260  and  _261
REMARK  108  A    between atoms: _261  and  _262
REMARK  109  A    between atoms: _262  and  _263
REMARK  110  A    between atoms: _263  and  _264
REMARK  111  A    between atoms: _268  and  _270
REMARK  112  A    between atoms: _270  and  _271
REMARK  113  A    between atoms: _270  and  _273
REMARK  114  A    between atoms: _273  and  _274
REMARK  115  A    between atoms: _284  and  _286
REMARK  116  A    between atoms: _286  and  _287
REMARK  117  A    between atoms: _286  and  _289
REMARK  118  A    between atoms: _289  and  _290
REMARK  119  A    between atoms: _290  and  _291
REMARK  120  A    between atoms: _294  and  _296
REMARK  121  A    between atoms: _296  and  _297
REMARK  122  A    between atoms: _300  and  _302
REMARK  123  A    between atoms: _302  and  _303
REMARK  124  A    between atoms: _302  and  _305
REMARK  125  A    between atoms: _305  and  _306
REMARK  126  A    between atoms: _306  and  _307
REMARK  127  A    between atoms: _307  and  _308
REMARK  128  A    between atoms: _308  and  _309
REMARK  129  A    between atoms: _313  and  _315
REMARK  130  A    between atoms: _315  and  _316
REMARK  131  A    between atoms: _315  and  _318
REMARK  132  A    between atoms: _318  and  _319
REMARK  133  A    between atoms: _319  and  _320
REMARK  134  A    between atoms: _320  and  _321
REMARK  135  A    between atoms: _321  and  _322
REMARK  136  A    between atoms: _326  and  _328
REMARK  137  A    between atoms: _328  and  _329
REMARK  138  A    between atoms: _328  and  _331
REMARK  139  A    between atoms: _331  and  _332
REMARK  140  A    between atoms: _335  and  _337
REMARK  141  A    between atoms: _337  and  _338
REMARK  142  A    between atoms: _341  and  _343
REMARK  143  A    between atoms: _343  and  _344
REMARK  144  A    between atoms: _343  and  _346
REMARK  145  A    between atoms: _346  and  _347
REMARK  146  A    between atoms: _347  and  _348
REMARK  147  A    between atoms: _348  and  _349
REMARK  148  A    between atoms: _349  and  _350
REMARK  149  A    between atoms: _355  and  _356
REMARK  150  A    between atoms: _361  and  _363
REMARK  151  A    between atoms: _363  and  _364
REMARK  152  A    between atoms: _367  and  _369
REMARK  153  A    between atoms: _369  and  _370
REMARK  154  A    between atoms: _369  and  _372
REMARK  155  A    between atoms: _375  and  _377
REMARK  156  A    between atoms: _377  and  _378
REMARK  157  A    between atoms: _377  and  _380
REMARK  158  A    between atoms: _380  and  _381
REMARK  159  A    between atoms: _387  and  _389
REMARK  160  A    between atoms: _389  and  _390
REMARK  161  A    between atoms: _389  and  _392
REMARK  162  A    between atoms: _392  and  _393
REMARK  163  A    between atoms: _396  and  _398
REMARK  164  A    between atoms: _398  and  _399
REMARK  165  A    between atoms: _398  and  _401
REMARK  166  A    between atoms: _401  and  _402
REMARK  167  A    between atoms: _405  and  _407
REMARK  168  A    between atoms: _407  and  _408
REMARK  169  A    between atoms: _407  and  _410
REMARK  170  A    between atoms: _410  and  _411
REMARK  171  A    between atoms: _414  and  _416
REMARK  172  A    between atoms: _416  and  _417
REMARK  173  A    between atoms: _416  and  _419
REMARK  174  A    between atoms: _419  and  _420
REMARK  175  A    between atoms: _425  and  _427
REMARK  176  A    between atoms: _427  and  _428
REMARK  177  A    between atoms: _427  and  _430
REMARK  178  A    between atoms: _430  and  _431
REMARK  179  A    between atoms: _431  and  _432
REMARK  180  A    between atoms: _432  and  _433
REMARK  181  A    between atoms: _433  and  _434
REMARK  182  A    between atoms: _438  and  _440
REMARK  183  A    between atoms: _440  and  _441
REMARK  184  A    between atoms: _440  and  _443
REMARK  185  A    between atoms: _446  and  _448
REMARK  186  A    between atoms: _448  and  _449
REMARK  187  A    between atoms: _448  and  _451
REMARK  188  A    between atoms: _451  and  _452
REMARK  189  A    between atoms: _455  and  _457
REMARK  190  A    between atoms: _457  and  _458
REMARK  191  A    between atoms: _457  and  _460
REMARK  192  A    between atoms: _463  and  _465
REMARK  193  A    between atoms: _465  and  _466
REMARK  194  A    between atoms: _465  and  _468
REMARK  195  A    between atoms: _468  and  _469
REMARK  196  A    between atoms: _472  and  _474
REMARK  197  A    between atoms: _474  and  _475
REMARK  198  A    between atoms: _474  and  _477
REMARK  199  A    between atoms: _477  and  _478
REMARK  200  A    between atoms: _481  and  _483
REMARK  201  A    between atoms: _483  and  _484
REMARK  202  A    between atoms: _483  and  _486
REMARK  203  A    between atoms: _486  and  _487
REMARK  204  A    between atoms: _490  and  _492
REMARK  205  A    between atoms: _492  and  _493
REMARK  206  A    between atoms: _492  and  _495
REMARK  207  A    between atoms: _495  and  _496
REMARK  208  A    between atoms: _499  and  _501
REMARK  209  A    between atoms: _501  and  _502
REMARK  210  A    between atoms: _501  and  _504
REMARK  211  A    between atoms: _504  and  _505
REMARK  212  A    between atoms: _508  and  _510
REMARK  213  A    between atoms: _510  and  _511
REMARK  214  A    between atoms: _510  and  _513
REMARK  215  A    between atoms: _513  and  _514
REMARK  216  A    between atoms: _520  and  _522
REMARK  217  A    between atoms: _522  and  _523
REMARK  218  A    between atoms: _522  and  _525
REMARK  219  A    between atoms: _525  and  _526
REMARK  220  A    between atoms: _526  and  _558
REMARK  221  A    between atoms: _527  and  _529
REMARK  222  A    between atoms: _529  and  _530
REMARK  223  A    between atoms: _529  and  _532
REMARK  224  A    between atoms: _532  and  _533
REMARK  225  A    between atoms: _533  and  _534
REMARK  226  A    between atoms: _536  and  _538
REMARK  227  A    between atoms: _538  and  _539
REMARK  228  A    between atoms: _538  and  _541
REMARK  229  A    between atoms: _541  and  _542
REMARK  230  A    between atoms: _542  and  _543
REMARK  231  A    between atoms: _546  and  _548
REMARK  232  A    between atoms: _548  and  _549
REMARK  233  A    between atoms: _552  and  _554
REMARK  234  A    between atoms: _554  and  _555
REMARK  235  A    between atoms: _554  and  _557
REMARK  236  A    between atoms: _557  and  _558
REMARK  237  A    between atoms: _559  and  _561
REMARK  238  A    between atoms: _561  and  _562
REMARK  239  A    between atoms: _561  and  _564
REMARK  240  A    between atoms: _564  and  _565
REMARK  241  A    between atoms: _565  and  _566
REMARK  242  A    between atoms: _571  and  _573
REMARK  243  A    between atoms: _573  and  _574
REMARK  244  A    between atoms: _573  and  _576
REMARK  245  A    between atoms: _576  and  _577
REMARK                            x       y       z     vdW  Elec       q    Type
REMARK                         _______ _______ _______ _____ _____    ______ ____
ROOT
ATOM      1  CA  SER A   1       0.629  17.697  26.632  0.00  0.00    +0.163 C 
ENDROOT
BRANCH   1   2
ATOM      2  N   SER A   1       1.882  18.184  26.038  0.00  0.00    -0.237 NA
ATOM      3  H   SER A   1       2.672  17.517  25.924  0.00  0.00    +0.142 HD
ENDBRANCH   1   2
BRANCH   1   4
ATOM      4  C   SER A   1       0.572  18.061  28.100  0.00  0.00    +0.227 C 
ATOM      5  O   SER A   1       0.997  17.293  28.948  0.00  0.00    -0.287 OA
ENDBRANCH   1   4
BRANCH   1   6
ATOM      6  CB  SER A   1       0.499  16.177  26.459  0.00  0.00    +0.162 C 
BRANCH   6   7
ATOM      7  OG  SER A   1       0.362  15.791  25.068  0.00  0.00    -0.380 OA
ATOM      8  H   SER A   1       0.282  14.806  25.006  0.00  0.00    +0.211 HD
ENDBRANCH   6   7
ENDBRANCH   1   6
TORSDOF 4
REMARK  Name = ../refined-set-2016/3uex/3uex_pocket.pdb
REMARK  245 active torsions:
REMARK  status: ('A' for Active; 'I' for Inactive)
REMARK    1  A    between atoms: _1  and  _3
REMARK    2  A    between atoms: _3  and  _4
REMARK    3  A    between atoms: _3  and  _6
REMARK    4  A    between atoms: _6  and  _7
REMARK    5  A    between atoms: _10  and  _12
REMARK    6  A    between atoms: _12  and  _13
REMARK    7  A    between atoms: _12  and  _15
REMARK    8  A    between atoms: _15  and  _16
REMARK    9  A    between atoms: _19  and  _21
REMARK   10  A    between atoms: _21  and  _22
REMARK   11  A    between atoms: _21  and  _24
REMARK   12  A    between atoms: _27  and  _29
REMARK   13  A    between atoms: _29  and  _30
REMARK   14  A    between atoms: _33  and  _35
REMARK   15  A    between atoms: _35  and  _36
REMARK   16  A    between atoms: _35  and  _38
REMARK   17  A    between atoms: _38  and  _39
REMARK   18  A    between atoms: _49  and  _51
REMARK   19  A    between atoms: _51  and  _52
REMARK   20  A    between atoms: _51  and  _54
REMARK   21  A    between atoms: _54  and  _55
REMARK   22  A    between atoms: _57  and  _59
REMARK   23  A    between atoms: _59  and  _60
REMARK   24  A    between atoms: _59  and  _62
REMARK   25  A    between atoms: _62  and  _63
REMARK   26  A    between atoms: _65  and  _67
REMARK   27  A    between atoms: _67  and  _68
REMARK   28  A    between atoms: _72  and  _73
REMARK   29  A    between atoms: _78  and  _80
REMARK   30  A    between atoms: _80  and  _81
REMARK   31  A    between atoms: _80  and  _83
REMARK   32  A    between atoms: _83  and  _84
REMARK   33  A    between atoms: _87  and  _89
REMARK   34  A    between atoms: _89  and  _90
REMARK   35  A    between atoms: _89  and  _92
REMARK   36  A    between atoms: _92  and  _93
REMARK   37  A    between atoms: _93  and  _94
REMARK   38  A    between atoms: _94  and  _95
REMARK   39  A    between atoms: _104  and  _106
REMARK   40  A    between atoms: _106  and  _107
REMARK   41  A    between atoms: _106  and  _109
REMARK   42  A    between atoms: _112  and  _114
REMARK   43  A    between atoms: _114  and  _115
REMARK   44  A    between atoms: _114  and  _117
REMARK   45  A    between atoms: _117  and  _118
REMARK   46  A    between atoms: _123  and  _124
REMARK   47  A    between atoms: _126  and  _128
REMARK   48  A    between atoms: _128  and  _129
REMARK   49  A    between atoms: _128  and  _131
REMARK   50  A    between atoms: _134  and  _136
REMARK   51  A    between atoms: _136  and  _137
REMARK   52  A    between atoms: _136  and  _139
REMARK   53  A    between atoms: _139  and  _140
REMARK   54  A    between atoms: _140  and  _141
REMARK   55  A    between atoms: _144  and  _146
REMARK   56  A    between atoms: _146  and  _147
REMARK   57  A    between atoms: _146  and  _149
REMARK   58  A    between atoms: _149  and  _150
REMARK   59  A    between atoms: _150  and  _151
REMARK   60  A    between atoms: _154  and  _156
REMARK   61  A    between atoms: _156  and  _157
REMARK   62  A    between atoms: _156  and  _159
REMARK   63  A    between atoms: _159  and  _160
REMARK   64  A    between atoms: _163  and  _165
REMARK   65  A    between atoms: _165  and  _166
REMARK   66  A    between atoms: _165  and  _168
REMARK   67  A    between atoms: _168  and  _169
REMARK   68  A    between atoms: _169  and  _170
REMARK   69  A    between atoms: _170  and  _171
REMARK   70  A    between atoms: _171  and  _172
REMARK   71  A    between atoms: _177  and  _178
REMARK   72  A    between atoms: _183  and  _185
REMARK   73  A    between atoms: _185  and  _186
REMARK   74  A    between atoms: _188  and  _190
REMARK   75  A    between atoms: _190  and  _191
REMARK   76  A    between atoms: _190  and  _193
REMARK   77  A    between atoms: _193  and  _194
REMARK   78  A    between atoms: _197  and  _199
REMARK   79  A    between atoms: _199  and  _200
REMARK   80  A    between atoms: _199  and  _202
REMARK   81  A    between atoms: _202  and  _203
REMARK   82  A    between atoms: _206  and  _208
REMARK   83  A    between atoms: _208  and  _209
REMARK   84  A    between atoms: _208  and  _211
REMARK   85  A    between atoms: _211  and  _212
REMARK   86  A    between atoms: _212  and  _213
REMARK   87  A    between atoms: _216  and  _218
REMARK   88  A    between atoms: _218  and  _219
REMARK   89  A    between atoms: _218  and  _221
REMARK   90  A    between atoms: _221  and  _222
REMARK   91  A    between atoms: _225  and  _227
REMARK   92  A    between atoms: _227  and  _228
REMARK   93  A    between atoms: _227  and  _230
REMARK   94  A    between atoms: _230  and  _231
REMARK   95  A    between atoms: _234  and  _236
REMARK   96  A    between atoms: _236  and  _237
REMARK   97  A    between atoms: _236  and  _239
REMARK   98  A    between atoms: _239  and  _240
REMARK   99  A    between atoms: _243  and  _245
REMARK  100  A    between atoms: _245  and  _246
REMARK  101  A    between atoms: _245  and  _248
REMARK  102  A    between atoms: _248  and  _249
REMARK  103  A    between atoms: _249  and  _250
REMARK  104  A    between atoms: _255  and  _257
REMARK  105  A    between atoms: _257  and  _258
REMARK  106  A    between atoms: _257  and  _260
REMARK  107  A    between atoms: _260  and  _261
REMARK  108  A    between atoms: _261  and  _262
REMARK  109  A    between atoms: _262  and  _263
REMARK  110  A    between atoms: _263  and  _264
REMARK  111  A    between atoms: _268  and  _270
REMARK  112  A    between atoms: _270  and  _271
REMARK  113  A    between atoms: _270  and  _273
REMARK  114  A    between atoms: _273  and  _274
REMARK  115  A    between atoms: _284  and  _286
REMARK  116  A    between atoms: _286  and  _287
REMARK  117  A    between atoms: _286  and  _289
REMARK  118  A    between atoms: _289  and  _290
REMARK  119  A    between atoms: _290  and  _291
REMARK  120  A    between atoms: _294  and  _296
REMARK  121  A    between atoms: _296  and  _297
REMARK  122  A    between atoms: _300  and  _302
REMARK  123  A    between atoms: _302  and  _303
REMARK  124  A    between atoms: _302  and  _305
REMARK  125  A    between atoms: _305  and  _306
REMARK  126  A    between atoms: _306  and  _307
REMARK  127  A    between atoms: _307  and  _308
REMARK  128  A    between atoms: _308  and  _309
REMARK  129  A    between atoms: _313  and  _315
REMARK  130  A    between atoms: _315  and  _316
REMARK  131  A    between atoms: _315  and  _318
REMARK  132  A    between atoms: _318  and  _319
REMARK  133  A    between atoms: _319  and  _320
REMARK  134  A    between atoms: _320  and  _321
REMARK  135  A    between atoms: _321  and  _322
REMARK  136  A    between atoms: _326  and  _328
REMARK  137  A    between atoms: _328  and  _329
REMARK  138  A    between atoms: _328  and  _331
REMARK  139  A    between atoms: _331  and  _332
REMARK  140  A    between atoms: _335  and  _337
REMARK  141  A    between atoms: _337  and  _338
REMARK  142  A    between atoms: _341  and  _343
REMARK  143  A    between atoms: _343  and  _344
REMARK  144  A    between atoms: _343  and  _346
REMARK  145  A    between atoms: _346  and  _347
REMARK  146  A    between atoms: _347  and  _348
REMARK  147  A    between atoms: _348  and  _349
REMARK  148  A    between atoms: _349  and  _350
REMARK  149  A    between atoms: _355  and  _356
REMARK  150  A    between atoms: _361  and  _363
REMARK  151  A    between atoms: _363  and  _364
REMARK  152  A    between atoms: _367  and  _369
REMARK  153  A    between atoms: _369  and  _370
REMARK  154  A    between atoms: _369  and  _372
REMARK  155  A    between atoms: _375  and  _377
REMARK  156  A    between atoms: _377  and  _378
REMARK  157  A    between atoms: _377  and  _380
REMARK  158  A    between atoms: _380  and  _381
REMARK  159  A    between atoms: _387  and  _389
REMARK  160  A    between atoms: _389  and  _390
REMARK  161  A    between atoms: _389  and  _392
REMARK  162  A    between atoms: _392  and  _393
REMARK  163  A    between atoms: _396  and  _398
REMARK  164  A    between atoms: _398  and  _399
REMARK  165  A    between atoms: _398  and  _401
REMARK  166  A    between atoms: _401  and  _402
REMARK  167  A    between atoms: _405  and  _407
REMARK  168  A    between atoms: _407  and  _408
REMARK  169  A    between atoms: _407  and  _410
REMARK  170  A    between atoms: _410  and  _411
REMARK  171  A    between atoms: _414  and  _416
REMARK  172  A    between atoms: _416  and  _417
REMARK  173  A    between atoms: _416  and  _419
REMARK  174  A    between atoms: _419  and  _420
REMARK  175  A    between atoms: _425  and  _427
REMARK  176  A    between atoms: _427  and  _428
REMARK  177  A    between atoms: _427  and  _430
REMARK  178  A    between atoms: _430  and  _431
REMARK  179  A    between atoms: _431  and  _432
REMARK  180  A    between atoms: _432  and  _433
REMARK  181  A    between atoms: _433  and  _434
REMARK  182  A    between atoms: _438  and  _440
REMARK  183  A    between atoms: _440  and  _441
REMARK  184  A    between atoms: _440  and  _443
REMARK  185  A    between atoms: _446  and  _448
REMARK  186  A    between atoms: _448  and  _449
REMARK  187  A    between atoms: _448  and  _451
REMARK  188  A    between atoms: _451  and  _452
REMARK  189  A    between atoms: _455  and  _457
REMARK  190  A    between atoms: _457  and  _458
REMARK  191  A    between atoms: _457  and  _460
REMARK  192  A    between atoms: _463  and  _465
REMARK  193  A    between atoms: _465  and  _466
REMARK  194  A    between atoms: _465  and  _468
REMARK  195  A    between atoms: _468  and  _469
REMARK  196  A    between atoms: _472  and  _474
REMARK  197  A    between atoms: _474  and  _475
REMARK  198  A    between atoms: _474  and  _477
REMARK  199  A    between atoms: _477  and  _478
REMARK  200  A    between atoms: _481  and  _483
REMARK  201  A    between atoms: _483  and  _484
REMARK  202  A    between atoms: _483  and  _486
REMARK  203  A    between atoms: _486  and  _487
REMARK  204  A    between atoms: _490  and  _492
REMARK  205  A    between atoms: _492  and  _493
REMARK  206  A    between atoms: _492  and  _495
REMARK  207  A    between atoms: _495  and  _496
REMARK  208  A    between atoms: _499  and  _501
REMARK  209  A    between atoms: _501  and  _502
REMARK  210  A    between atoms: _501  and  _504
REMARK  211  A    between atoms: _504  and  _505
REMARK  212  A    between atoms: _508  and  _510
REMARK  213  A    between atoms: _510  and  _511
REMARK  214  A    between atoms: _510  and  _513
REMARK  215  A    between atoms: _513  and  _514
REMARK  216  A    between atoms: _520  and  _522
REMARK  217  A    between atoms: _522  and  _523
REMARK  218  A    between atoms: _522  and  _525
REMARK  219  A    between atoms: _525  and  _526
REMARK  220  A    between atoms: _526  and  _558
REMARK  221  A    between atoms: _527  and  _529
REMARK  222  A    between atoms: _529  and  _530
REMARK  223  A    between atoms: _529  and  _532
REMARK  224  A    between atoms: _532  and  _533
REMARK  225  A    between atoms: _533  and  _534
REMARK  226  A    between atoms: _536  and  _538
REMARK  227  A    between atoms: _538  and  _539
REMARK  228  A    between atoms: _538  and  _541
REMARK  229  A    between atoms: _541  and  _542
REMARK  230  A    between atoms: _542  and  _543
REMARK  231  A    between atoms: _546  and  _548
REMARK  232  A    between atoms: _548  and  _549
REMARK  233  A    between atoms: _552  and  _554
REMARK  234  A    between atoms: _554  and  _555
REMARK  235  A    between atoms: _554  and  _557
REMARK  236  A    between atoms: _557  and  _558
REMARK  237  A    between atoms: _559  and  _561
REMARK  238  A    between atoms: _561  and  _562
REMARK  239  A    between atoms: _561  and  _564
REMARK  240  A    between atoms: _564  and  _565
REMARK  241  A    between atoms: _565  and  _566
REMARK  242  A    between atoms: _571  and  _573
REMARK  243  A    between atoms: _573  and  _574
REMARK  244  A    between atoms: _573  and  _576
REMARK  245  A    between atoms: _576  and  _577
REMARK                            x       y       z     vdW  Elec       q    Type
REMARK                         _______ _______ _______ _____ _____    ______ ____
ROOT
ATOM      1  CA  TYR A   7       2.584  12.589  25.116  0.00  0.00    +0.153 C 
ENDROOT
BRANCH   1   4
ATOM      2  C   VAL A   6       0.661  11.109  25.174  0.00  0.00    +0.241 C 
ATOM      3  O   VAL A   6      -0.134  12.007  25.443  0.00  0.00    -0.273 OA
ATOM      4  N   TYR A   7       1.944  11.321  24.914  0.00  0.00    -0.297 N 
ATOM      5  H   TYR A   7       2.513  10.531  24.547  0.00  0.00    +0.150 HD
BRANCH   2   6
ATOM      6  CA  VAL A   6       0.211   9.662  25.124  0.00  0.00    +0.149 C 
BRANCH   6   9
ATOM      7  C   ARG A   5      -0.641   8.290  26.958  0.00  0.00    +0.241 C 
ATOM      8  O   ARG A   5       0.350   7.561  26.965  0.00  0.00    -0.273 OA
ATOM      9  N   VAL A   6      -0.743   9.374  26.188  0.00  0.00    -0.297 N 
ATOM     10  H   VAL A   6      -1.529  10.035  26.352  0.00  0.00    +0.150 HD
BRANCH   7  11
ATOM     11  CA  ARG A   5      -1.857   7.996  27.853  0.00  0.00    +0.149 C 
BRANCH  11  13
ATOM     12  C   LEU A   4      -3.798   7.758  26.411  0.00  0.00    +0.241 C 
ATOM     13  N   ARG A   5      -2.853   7.189  27.150  0.00  0.00    -0.297 N 
ATOM     14  H   ARG A   5      -2.821   6.153  27.230  0.00  0.00    +0.150 HD
ATOM     15  O   LEU A   4      -3.894   8.989  26.261  0.00  0.00    -0.273 OA
BRANCH  12  16
ATOM     16  CA  LEU A   4      -4.745   6.803  25.707  0.00  0.00    +0.149 C 
BRANCH  16  18
ATOM     17  C   PRO A   3      -4.179   4.462  25.568  0.00  0.00    +0.241 C 
ATOM     18  N   LEU A   4      -4.748   5.434  26.269  0.00  0.00    -0.297 N 
ATOM     19  H   LEU A   4      -5.186   5.238  27.192  0.00  0.00    +0.150 HD
ATOM     20  O   PRO A   3      -3.675   4.671  24.467  0.00  0.00    -0.273 OA
BRANCH  17  27
ATOM     21  C   ALA A   2      -2.808   3.356  28.201  0.00  0.00    +0.244 C 
ATOM     22  O   ALA A   2      -2.046   4.148  27.656  0.00  0.00    -0.273 OA
ATOM     23  N   PRO A   3      -3.909   2.875  27.589  0.00  0.00    -0.272 N 
ATOM     24  CD  PRO A   3      -4.892   1.964  28.203  0.00  0.00    +0.094 C 
ATOM     25  CG  PRO A   3      -6.057   2.062  27.292  0.00  0.00    +0.024 C 
ATOM     26  CB  PRO A   3      -5.498   2.321  25.916  0.00  0.00    +0.031 C 
ATOM     27  CA  PRO A   3      -4.157   3.036  26.142  0.00  0.00    +0.152 C 
BRANCH  21  28
ATOM     28  CA  ALA A   2      -2.566   2.933  29.659  0.00  0.00    +0.149 C 
ATOM     29  CB  ALA A   2      -3.258   3.914  30.594  0.00  0.00    +0.031 C 
BRANCH  28  31
ATOM     30  C   SER A   1      -0.268   2.063  29.337  0.00  0.00    +0.241 C 
ATOM     31  N   ALA A   2      -1.148   2.769  30.050  0.00  0.00    -0.297 N 
ATOM     32  H   ALA A   2      -0.821   3.227  30.925  0.00  0.00    +0.150 HD
ATOM     33  O   SER A   1      -0.572   1.491  28.288  0.00  0.00    -0.274 OA
BRANCH  30  34
ATOM     34  CA  SER A   1       1.189   1.982  29.855  0.00  0.00    +0.174 C 
BRANCH  34  35
ATOM     35  N   SER A   1       1.541   2.788  31.054  0.00  0.00    -0.236 NA
ATOM     36  H   SER A   1       1.458   2.349  31.993  0.00  0.00    +0.142 HD
ENDBRANCH  34  35
BRANCH  34  37
ATOM     37  CB  SER A   1       1.644   0.513  30.021  0.00  0.00    +0.163 C 
BRANCH  37  38
ATOM     38  OG  SER A   1       2.103   0.266  31.354  0.00  0.00    -0.380 OA
ATOM     39  H   SER A   1       2.388  -0.679  31.434  0.00  0.00    +0.211 HD
ENDBRANCH  37  38
ENDBRANCH  34  37
ENDBRANCH  30  34
ENDBRANCH  28  31
ENDBRANCH  21  28
ENDBRANCH  17  27
ENDBRANCH  16  18
BRANCH  16  40
ATOM     40  CB  LEU A   4      -6.158   7.374  25.570  0.00  0.00    +0.029 C 
BRANCH  40  41
ATOM     41  CG  LEU A   4      -7.138   6.557  24.707  0.00  0.00    +0.002 C 
ATOM     42  CD2 LEU A   4      -8.531   7.121  24.784  0.00  0.00    +0.000 C 
ATOM     43  CD1 LEU A   4      -6.693   6.390  23.236  0.00  0.00    +0.000 C 
ENDBRANCH  40  41
ENDBRANCH  16  40
ENDBRANCH  12  16
ENDBRANCH  11  13
BRANCH  11  44
ATOM     44  CB  ARG A   5      -1.441   7.336  29.169  0.00  0.00    +0.033 C 
BRANCH  44  45
ATOM     45  CG  ARG A   5      -0.486   8.176  29.963  0.00  0.00    +0.045 C 
BRANCH  45  46
ATOM     46  CD  ARG A   5      -0.803   8.059  31.413  0.00  0.00    +0.174 C 
BRANCH  46  47
ATOM     47  NE  ARG A   5       0.209   8.725  32.207  0.00  0.00    -0.265 N 
ATOM     48  CZ  ARG A   5       0.347   8.586  33.517  0.00  0.00    +0.342 C 
ATOM     49  NH2 ARG A   5      -0.471   7.800  34.205  0.00  0.00    -0.292 N 
ATOM     50 HH21 ARG A   5      -0.353   7.699  35.233  0.00  0.00    +0.255 HD
ATOM     51 HH22 ARG A   5      -1.231   7.285  33.716  0.00  0.00    +0.255 HD
ATOM     52  NH1 ARG A   5       1.315   9.239  34.128  0.00  0.00    -0.292 N 
ATOM     53 HH11 ARG A   5       1.439   9.143  35.156  0.00  0.00    +0.255 HD
ATOM     54 HH12 ARG A   5       1.955   9.851  33.582  0.00  0.00    +0.255 HD
ATOM     55  HE  ARG A   5       0.873   9.356  31.715  0.00  0.00    +0.259 HD
ENDBRANCH  46  47
ENDBRANCH  45  46
ENDBRANCH  44  45
ENDBRANCH  11  44
ENDBRANCH   7  11
ENDBRANCH   6   9
BRANCH   6  56
ATOM     56  CB  VAL A   6      -0.364   9.315  23.745  0.00  0.00    +0.027 C 
ATOM     57  CG2 VAL A   6      -0.630   7.814  23.671  0.00  0.00    +0.002 C 
ATOM     58  CG1 VAL A   6      -1.658  10.121  23.464  0.00  0.00    +0.002 C 
ENDBRANCH   6  56
ENDBRANCH   2   6
ENDBRANCH   1   4
BRANCH   1  59
ATOM     59  C   TYR A   7       2.963  13.115  23.747  0.00  0.00    +0.241 C 
ATOM     60  N   VAL A   8       2.317  14.199  23.328  0.00  0.00    -0.297 N 
ATOM     61  H   VAL A   8       1.657  14.665  23.982  0.00  0.00    +0.150 HD
ATOM     62  O   TYR A   7       3.775  12.521  23.072  0.00  0.00    -0.273 OA
BRANCH  60  63
ATOM     63  CA  VAL A   8       2.488  14.762  22.006  0.00  0.00    +0.149 C 
BRANCH  63  64
ATOM     64  C   VAL A   8       3.838  15.486  21.918  0.00  0.00    +0.241 C 
ATOM     65  O   VAL A   8       4.223  16.242  22.831  0.00  0.00    -0.273 OA
ATOM     66  N   GLU A   9       4.555  15.221  20.830  0.00  0.00    -0.297 N 
ATOM     67  H   GLU A   9       4.179  14.557  20.124  0.00  0.00    +0.150 HD
BRANCH  66  68
ATOM     68  CA  GLU A   9       5.852  15.837  20.603  0.00  0.00    +0.149 C 
BRANCH  68  69
ATOM     69  C   GLU A   9       5.778  16.893  19.498  0.00  0.00    +0.241 C 
ATOM     70  O   GLU A   9       6.294  17.998  19.642  0.00  0.00    -0.273 OA
ATOM     71  N   GLU A  10       5.149  16.552  18.383  0.00  0.00    -0.297 N 
ATOM     72  H   GLU A  10       4.680  15.627  18.302  0.00  0.00    +0.150 HD
BRANCH  71  73
ATOM     73  CA  GLU A  10       5.125  17.496  17.271  0.00  0.00    +0.149 C 
BRANCH  73  74
ATOM     74  C   GLU A  10       4.049  17.185  16.256  0.00  0.00    +0.241 C 
ATOM     75  O   GLU A  10       3.726  16.018  16.024  0.00  0.00    -0.273 OA
ATOM     76  N   LEU A  11       3.500  18.236  15.647  0.00  0.00    -0.297 N 
ATOM     77  H   LEU A  11       3.751  19.204  15.932  0.00  0.00    +0.150 HD
BRANCH  76  78
ATOM     78  CA  LEU A  11       2.543  18.004  14.577  0.00  0.00    +0.149 C 
BRANCH  78  79
ATOM     79  C   LEU A  11       3.129  18.434  13.228  0.00  0.00    +0.241 C 
ATOM     80  O   LEU A  11       3.585  19.565  13.091  0.00  0.00    -0.273 OA
ATOM     81  N   LYS A  12       3.083  17.512  12.268  0.00  0.00    -0.297 N 
ATOM     82  H   LYS A  12       2.742  16.562  12.519  0.00  0.00    +0.150 HD
BRANCH  81  83
ATOM     83  CA  LYS A  12       3.485  17.755  10.875  0.00  0.00    +0.149 C 
BRANCH  83  84
ATOM     84  C   LYS A  12       2.316  17.576   9.878  0.00  0.00    +0.244 C 
ATOM     85  N   PRO A  13       1.591  18.661   9.593  0.00  0.00    -0.273 N 
ATOM     86  CD  PRO A  13       1.811  19.984  10.184  0.00  0.00    +0.094 C 
ATOM     87  CG  PRO A  13       0.692  20.799   9.652  0.00  0.00    +0.024 C 
ATOM     88  CB  PRO A  13       0.109  20.129   8.494  0.00  0.00    +0.030 C 
ATOM     89  CA  PRO A  13       0.596  18.681   8.513  0.00  0.00    +0.140 C 
ATOM     90  O   LYS A  12       2.053  16.476   9.394  0.00  0.00    -0.273 OA
BRANCH  89  91
ATOM     91  C   PRO A  13       1.223  18.361   7.152  0.00  0.00    +0.227 C 
ATOM     92  O   PRO A  13       2.322  18.846   6.861  0.00  0.00    -0.286 OA
ENDBRANCH  89  91
ENDBRANCH  83  84
BRANCH  83  93
ATOM     93  CB  LYS A  12       4.670  16.848  10.511  0.00  0.00    +0.029 C 
BRANCH  93  94
ATOM     94  CG  LYS A  12       5.778  16.863  11.574  0.00  0.00    +0.000 C 
BRANCH  94  95
ATOM     95  CD  LYS A  12       6.977  16.021  11.168  0.00  0.00    -0.024 C 
BRANCH  95  96
ATOM     96  CE  LYS A  12       8.034  16.041  12.251  0.00  0.00    -0.086 C 
BRANCH  96  97
ATOM     97  NZ  LYS A  12       9.265  15.234  11.916  0.00  0.00    +0.380 N 
ATOM     98  HZ1 LYS A  12       9.943  15.295  12.703  0.00  0.00    -0.089 HD
ATOM     99  HZ2 LYS A  12       8.996  14.241  11.764  0.00  0.00    -0.089 HD
ATOM    100  HZ3 LYS A  12       9.701  15.612  11.051  0.00  0.00    -0.089 HD
ENDBRANCH  96  97
ENDBRANCH  95  96
ENDBRANCH  94  95
ENDBRANCH  93  94
ENDBRANCH  83  93
ENDBRANCH  81  83
ENDBRANCH  78  79
BRANCH  78 101
ATOM    101  CB  LEU A  11       1.187  18.687  14.855  0.00  0.00    +0.029 C 
BRANCH 101 102
ATOM    102  CG  LEU A  11       0.506  18.445  16.221  0.00  0.00    +0.002 C 
ATOM    103  CD2 LEU A  11       0.309  16.977  16.519  0.00  0.00    +0.000 C 
ATOM    104  CD1 LEU A  11      -0.825  19.188  16.271  0.00  0.00    +0.000 C 
ENDBRANCH 101 102
ENDBRANCH  78 101
ENDBRANCH  76  78
ENDBRANCH  73  74
BRANCH  73 105
ATOM    105  CB  GLU A  10       6.515  17.588  16.616  0.00  0.00    +0.041 C 
BRANCH 105 106
ATOM    106  CG  GLU A  10       6.560  18.105  15.176  0.00  0.00    +0.116 C 
BRANCH 106 107
ATOM    107  CD  GLU A  10       7.997  18.310  14.713  0.00  0.00    +0.365 C 
ATOM    108  OE2 GLU A  10       8.764  17.318  14.766  0.00  0.00    -0.246 OA
ATOM    109  OE1 GLU A  10       8.353  19.445  14.309  0.00  0.00    -0.246 OA
ENDBRANCH 106 107
ENDBRANCH 105 106
ENDBRANCH  73 105
ENDBRANCH  71  73
ENDBRANCH  68  69
BRANCH  68 110
ATOM    110  CB  GLU A   9       6.903  14.775  20.262  0.00  0.00    +0.041 C 
BRANCH 110 111
ATOM    111  CG  GLU A   9       8.323  15.332  20.071  0.00  0.00    +0.116 C 
BRANCH 111 112
ATOM    112  CD  GLU A   9       9.197  14.471  19.165  0.00  0.00    +0.365 C 
ATOM    113  OE2 GLU A   9       8.907  13.264  19.033  0.00  0.00    -0.246 OA
ATOM    114  OE1 GLU A   9      10.167  15.009  18.568  0.00  0.00    -0.246 OA
ENDBRANCH 111 112
ENDBRANCH 110 111
ENDBRANCH  68 110
ENDBRANCH  66  68
ENDBRANCH  63  64
BRANCH  63 115
ATOM    115  CB  VAL A   8       1.315  15.699  21.616  0.00  0.00    +0.027 C 
ATOM    116  CG2 VAL A   8       0.002  14.979  21.729  0.00  0.00    +0.002 C 
ATOM    117  CG1 VAL A   8       1.488  16.207  20.182  0.00  0.00    +0.002 C 
ENDBRANCH  63 115
ENDBRANCH  60  63
ENDBRANCH   1  59
BRANCH   1 118
ATOM    118  CB  TYR A   7       3.810  12.374  26.002  0.00  0.00    +0.055 C 
BRANCH 118 119
ATOM    119  CG  TYR A   7       3.526  11.584  27.279  0.00  0.00    -0.020 A 
ATOM    120  CD2 TYR A   7       3.129  12.231  28.440  0.00  0.00    -0.001 A 
ATOM    121  CE2 TYR A   7       2.889  11.509  29.645  0.00  0.00    +0.036 A 
ATOM    122  CZ  TYR A   7       3.042  10.130  29.662  0.00  0.00    +0.134 A 
ATOM    123  CE1 TYR A   7       3.427   9.461  28.521  0.00  0.00    +0.036 A 
ATOM    124  CD1 TYR A   7       3.678  10.189  27.327  0.00  0.00    -0.001 A 
BRANCH 122 125
ATOM    125  OH  TYR A   7       2.788   9.440  30.833  0.00  0.00    -0.506 OA
ATOM    126  HH  TYR A   7       2.941   8.473  30.685  0.00  0.00    +0.292 HD
ENDBRANCH 122 125
ENDBRANCH 118 119
ENDBRANCH   1 118
TORSDOF 50
REMARK  Name = ../refined-set-2016/3uex/3uex_pocket.pdb
REMARK  245 active torsions:
REMARK  status: ('A' for Active; 'I' for Inactive)
REMARK    1  A    between atoms: _1  and  _3
REMARK    2  A    between atoms: _3  and  _4
REMARK    3  A    between atoms: _3  and  _6
REMARK    4  A    between atoms: _6  and  _7
REMARK    5  A    between atoms: _10  and  _12
REMARK    6  A    between atoms: _12  and  _13
REMARK    7  A    between atoms: _12  and  _15
REMARK    8  A    between atoms: _15  and  _16
REMARK    9  A    between atoms: _19  and  _21
REMARK   10  A    between atoms: _21  and  _22
REMARK   11  A    between atoms: _21  and  _24
REMARK   12  A    between atoms: _27  and  _29
REMARK   13  A    between atoms: _29  and  _30
REMARK   14  A    between atoms: _33  and  _35
REMARK   15  A    between atoms: _35  and  _36
REMARK   16  A    between atoms: _35  and  _38
REMARK   17  A    between atoms: _38  and  _39
REMARK   18  A    between atoms: _49  and  _51
REMARK   19  A    between atoms: _51  and  _52
REMARK   20  A    between atoms: _51  and  _54
REMARK   21  A    between atoms: _54  and  _55
REMARK   22  A    between atoms: _57  and  _59
REMARK   23  A    between atoms: _59  and  _60
REMARK   24  A    between atoms: _59  and  _62
REMARK   25  A    between atoms: _62  and  _63
REMARK   26  A    between atoms: _65  and  _67
REMARK   27  A    between atoms: _67  and  _68
REMARK   28  A    between atoms: _72  and  _73
REMARK   29  A    between atoms: _78  and  _80
REMARK   30  A    between atoms: _80  and  _81
REMARK   31  A    between atoms: _80  and  _83
REMARK   32  A    between atoms: _83  and  _84
REMARK   33  A    between atoms: _87  and  _89
REMARK   34  A    between atoms: _89  and  _90
REMARK   35  A    between atoms: _89  and  _92
REMARK   36  A    between atoms: _92  and  _93
REMARK   37  A    between atoms: _93  and  _94
REMARK   38  A    between atoms: _94  and  _95
REMARK   39  A    between atoms: _104  and  _106
REMARK   40  A    between atoms: _106  and  _107
REMARK   41  A    between atoms: _106  and  _109
REMARK   42  A    between atoms: _112  and  _114
REMARK   43  A    between atoms: _114  and  _115
REMARK   44  A    between atoms: _114  and  _117
REMARK   45  A    between atoms: _117  and  _118
REMARK   46  A    between atoms: _123  and  _124
REMARK   47  A    between atoms: _126  and  _128
REMARK   48  A    between atoms: _128  and  _129
REMARK   49  A    between atoms: _128  and  _131
REMARK   50  A    between atoms: _134  and  _136
REMARK   51  A    between atoms: _136  and  _137
REMARK   52  A    between atoms: _136  and  _139
REMARK   53  A    between atoms: _139  and  _140
REMARK   54  A    between atoms: _140  and  _141
REMARK   55  A    between atoms: _144  and  _146
REMARK   56  A    between atoms: _146  and  _147
REMARK   57  A    between atoms: _146  and  _149
REMARK   58  A    between atoms: _149  and  _150
REMARK   59  A    between atoms: _150  and  _151
REMARK   60  A    between atoms: _154  and  _156
REMARK   61  A    between atoms: _156  and  _157
REMARK   62  A    between atoms: _156  and  _159
REMARK   63  A    between atoms: _159  and  _160
REMARK   64  A    between atoms: _163  and  _165
REMARK   65  A    between atoms: _165  and  _166
REMARK   66  A    between atoms: _165  and  _168
REMARK   67  A    between atoms: _168  and  _169
REMARK   68  A    between atoms: _169  and  _170
REMARK   69  A    between atoms: _170  and  _171
REMARK   70  A    between atoms: _171  and  _172
REMARK   71  A    between atoms: _177  and  _178
REMARK   72  A    between atoms: _183  and  _185
REMARK   73  A    between atoms: _185  and  _186
REMARK   74  A    between atoms: _188  and  _190
REMARK   75  A    between atoms: _190  and  _191
REMARK   76  A    between atoms: _190  and  _193
REMARK   77  A    between atoms: _193  and  _194
REMARK   78  A    between atoms: _197  and  _199
REMARK   79  A    between atoms: _199  and  _200
REMARK   80  A    between atoms: _199  and  _202
REMARK   81  A    between atoms: _202  and  _203
REMARK   82  A    between atoms: _206  and  _208
REMARK   83  A    between atoms: _208  and  _209
REMARK   84  A    between atoms: _208  and  _211
REMARK   85  A    between atoms: _211  and  _212
REMARK   86  A    between atoms: _212  and  _213
REMARK   87  A    between atoms: _216  and  _218
REMARK   88  A    between atoms: _218  and  _219
REMARK   89  A    between atoms: _218  and  _221
REMARK   90  A    between atoms: _221  and  _222
REMARK   91  A    between atoms: _225  and  _227
REMARK   92  A    between atoms: _227  and  _228
REMARK   93  A    between atoms: _227  and  _230
REMARK   94  A    between atoms: _230  and  _231
REMARK   95  A    between atoms: _234  and  _236
REMARK   96  A    between atoms: _236  and  _237
REMARK   97  A    between atoms: _236  and  _239
REMARK   98  A    between atoms: _239  and  _240
REMARK   99  A    between atoms: _243  and  _245
REMARK  100  A    between atoms: _245  and  _246
REMARK  101  A    between atoms: _245  and  _248
REMARK  102  A    between atoms: _248  and  _249
REMARK  103  A    between atoms: _249  and  _250
REMARK  104  A    between atoms: _255  and  _257
REMARK  105  A    between atoms: _257  and  _258
REMARK  106  A    between atoms: _257  and  _260
REMARK  107  A    between atoms: _260  and  _261
REMARK  108  A    between atoms: _261  and  _262
REMARK  109  A    between atoms: _262  and  _263
REMARK  110  A    between atoms: _263  and  _264
REMARK  111  A    between atoms: _268  and  _270
REMARK  112  A    between atoms: _270  and  _271
REMARK  113  A    between atoms: _270  and  _273
REMARK  114  A    between atoms: _273  and  _274
REMARK  115  A    between atoms: _284  and  _286
REMARK  116  A    between atoms: _286  and  _287
REMARK  117  A    between atoms: _286  and  _289
REMARK  118  A    between atoms: _289  and  _290
REMARK  119  A    between atoms: _290  and  _291
REMARK  120  A    between atoms: _294  and  _296
REMARK  121  A    between atoms: _296  and  _297
REMARK  122  A    between atoms: _300  and  _302
REMARK  123  A    between atoms: _302  and  _303
REMARK  124  A    between atoms: _302  and  _305
REMARK  125  A    between atoms: _305  and  _306
REMARK  126  A    between atoms: _306  and  _307
REMARK  127  A    between atoms: _307  and  _308
REMARK  128  A    between atoms: _308  and  _309
REMARK  129  A    between atoms: _313  and  _315
REMARK  130  A    between atoms: _315  and  _316
REMARK  131  A    between atoms: _315  and  _318
REMARK  132  A    between atoms: _318  and  _319
REMARK  133  A    between atoms: _319  and  _320
REMARK  134  A    between atoms: _320  and  _321
REMARK  135  A    between atoms: _321  and  _322
REMARK  136  A    between atoms: _326  and  _328
REMARK  137  A    between atoms: _328  and  _329
REMARK  138  A    between atoms: _328  and  _331
REMARK  139  A    between atoms: _331  and  _332
REMARK  140  A    between atoms: _335  and  _337
REMARK  141  A    between atoms: _337  and  _338
REMARK  142  A    between atoms: _341  and  _343
REMARK  143  A    between atoms: _343  and  _344
REMARK  144  A    between atoms: _343  and  _346
REMARK  145  A    between atoms: _346  and  _347
REMARK  146  A    between atoms: _347  and  _348
REMARK  147  A    between atoms: _348  and  _349
REMARK  148  A    between atoms: _349  and  _350
REMARK  149  A    between atoms: _355  and  _356
REMARK  150  A    between atoms: _361  and  _363
REMARK  151  A    between atoms: _363  and  _364
REMARK  152  A    between atoms: _367  and  _369
REMARK  153  A    between atoms: _369  and  _370
REMARK  154  A    between atoms: _369  and  _372
REMARK  155  A    between atoms: _375  and  _377
REMARK  156  A    between atoms: _377  and  _378
REMARK  157  A    between atoms: _377  and  _380
REMARK  158  A    between atoms: _380  and  _381
REMARK  159  A    between atoms: _387  and  _389
REMARK  160  A    between atoms: _389  and  _390
REMARK  161  A    between atoms: _389  and  _392
REMARK  162  A    between atoms: _392  and  _393
REMARK  163  A    between atoms: _396  and  _398
REMARK  164  A    between atoms: _398  and  _399
REMARK  165  A    between atoms: _398  and  _401
REMARK  166  A    between atoms: _401  and  _402
REMARK  167  A    between atoms: _405  and  _407
REMARK  168  A    between atoms: _407  and  _408
REMARK  169  A    between atoms: _407  and  _410
REMARK  170  A    between atoms: _410  and  _411
REMARK  171  A    between atoms: _414  and  _416
REMARK  172  A    between atoms: _416  and  _417
REMARK  173  A    between atoms: _416  and  _419
REMARK  174  A    between atoms: _419  and  _420
REMARK  175  A    between atoms: _425  and  _427
REMARK  176  A    between atoms: _427  and  _428
REMARK  177  A    between atoms: _427  and  _430
REMARK  178  A    between atoms: _430  and  _431
REMARK  179  A    between atoms: _431  and  _432
REMARK  180  A    between atoms: _432  and  _433
REMARK  181  A    between atoms: _433  and  _434
REMARK  182  A    between atoms: _438  and  _440
REMARK  183  A    between atoms: _440  and  _441
REMARK  184  A    between atoms: _440  and  _443
REMARK  185  A    between atoms: _446  and  _448
REMARK  186  A    between atoms: _448  and  _449
REMARK  187  A    between atoms: _448  and  _451
REMARK  188  A    between atoms: _451  and  _452
REMARK  189  A    between atoms: _455  and  _457
REMARK  190  A    between atoms: _457  and  _458
REMARK  191  A    between atoms: _457  and  _460
REMARK  192  A    between atoms: _463  and  _465
REMARK  193  A    between atoms: _465  and  _466
REMARK  194  A    between atoms: _465  and  _468
REMARK  195  A    between atoms: _468  and  _469
REMARK  196  A    between atoms: _472  and  _474
REMARK  197  A    between atoms: _474  and  _475
REMARK  198  A    between atoms: _474  and  _477
REMARK  199  A    between atoms: _477  and  _478
REMARK  200  A    between atoms: _481  and  _483
REMARK  201  A    between atoms: _483  and  _484
REMARK  202  A    between atoms: _483  and  _486
REMARK  203  A    between atoms: _486  and  _487
REMARK  204  A    between atoms: _490  and  _492
REMARK  205  A    between atoms: _492  and  _493
REMARK  206  A    between atoms: _492  and  _495
REMARK  207  A    between atoms: _495  and  _496
REMARK  208  A    between atoms: _499  and  _501
REMARK  209  A    between atoms: _501  and  _502
REMARK  210  A    between atoms: _501  and  _504
REMARK  211  A    between atoms: _504  and  _505
REMARK  212  A    between atoms: _508  and  _510
REMARK  213  A    between atoms: _510  and  _511
REMARK  214  A    between atoms: _510  and  _513
REMARK  215  A    between atoms: _513  and  _514
REMARK  216  A    between atoms: _520  and  _522
REMARK  217  A    between atoms: _522  and  _523
REMARK  218  A    between atoms: _522  and  _525
REMARK  219  A    between atoms: _525  and  _526
REMARK  220  A    between atoms: _526  and  _558
REMARK  221  A    between atoms: _527  and  _529
REMARK  222  A    between atoms: _529  and  _530
REMARK  223  A    between atoms: _529  and  _532
REMARK  224  A    between atoms: _532  and  _533
REMARK  225  A    between atoms: _533  and  _534
REMARK  226  A    between atoms: _536  and  _538
REMARK  227  A    between atoms: _538  and  _539
REMARK  228  A    between atoms: _538  and  _541
REMARK  229  A    between atoms: _541  and  _542
REMARK  230  A    between atoms: _542  and  _543
REMARK  231  A    between atoms: _546  and  _548
REMARK  232  A    between atoms: _548  and  _549
REMARK  233  A    between atoms: _552  and  _554
REMARK  234  A    between atoms: _554  and  _555
REMARK  235  A    between atoms: _554  and  _557
REMARK  236  A    between atoms: _557  and  _558
REMARK  237  A    between atoms: _559  and  _561
REMARK  238  A    between atoms: _561  and  _562
REMARK  239  A    between atoms: _561  and  _564
REMARK  240  A    between atoms: _564  and  _565
REMARK  241  A    between atoms: _565  and  _566
REMARK  242  A    between atoms: _571  and  _573
REMARK  243  A    between atoms: _573  and  _574
REMARK  244  A    between atoms: _573  and  _576
REMARK  245  A    between atoms: _576  and  _577
REMARK                            x       y       z     vdW  Elec       q    Type
REMARK                         _______ _______ _______ _____ _____    ______ ____
ROOT
ATOM      1  CA  LEU A   7       4.389  11.118  20.097  0.00  0.00    +0.149 C 
ENDROOT
BRANCH   1   2
ATOM      2  C   LEU A   7       5.196  10.052  20.843  0.00  0.00    +0.241 C 
ATOM      3  N   GLN A   8       5.100  10.096  22.175  0.00  0.00    -0.297 N 
ATOM      4  H   GLN A   8       4.563  10.883  22.593  0.00  0.00    +0.150 HD
ATOM      5  O   LEU A   7       5.870   9.217  20.215  0.00  0.00    -0.273 OA
BRANCH   3   6
ATOM      6  CA  GLN A   8       5.698   9.113  23.095  0.00  0.00    +0.149 C 
BRANCH   6   7
ATOM      7  C   GLN A   8       4.608   8.284  23.748  0.00  0.00    +0.241 C 
ATOM      8  O   GLN A   8       3.533   8.802  24.064  0.00  0.00    -0.273 OA
ATOM      9  N   LYS A   9       4.873   6.996  23.931  0.00  0.00    -0.297 N 
ATOM     10  H   LYS A   9       5.731   6.592  23.505  0.00  0.00    +0.150 HD
BRANCH   9  11
ATOM     11  CA  LYS A   9       3.993   6.129  24.714  0.00  0.00    +0.149 C 
BRANCH  11  12
ATOM     12  C   LYS A   9       4.784   5.023  25.404  0.00  0.00    +0.241 C 
ATOM     13  N   TRP A  10       4.520   4.838  26.690  0.00  0.00    -0.297 N 
ATOM     14  H   TRP A  10       3.842   5.482  27.144  0.00  0.00    +0.150 HD
ATOM     15  O   LYS A   9       5.565   4.325  24.757  0.00  0.00    -0.273 OA
BRANCH  13  16
ATOM     16  CA  TRP A  10       5.119   3.789  27.510  0.00  0.00    +0.153 C 
BRANCH  16  17
ATOM     17  C   TRP A  10       4.560   2.404  27.172  0.00  0.00    +0.241 C 
ATOM     18  O   TRP A  10       3.358   2.148  27.368  0.00  0.00    -0.273 OA
ATOM     19  N   GLU A  11       5.432   1.515  26.681  0.00  0.00    -0.298 N 
ATOM     20  H   GLU A  11       6.432   1.788  26.592  0.00  0.00    +0.150 HD
BRANCH  19  21
ATOM     21  CA  GLU A  11       5.024   0.168  26.264  0.00  0.00    +0.137 C 
BRANCH  21  22
ATOM     22  C   GLU A  11       5.697  -0.995  27.009  0.00  0.00    +0.227 C 
ATOM     23  O   GLU A  11       5.028  -1.935  27.438  0.00  0.00    -0.286 OA
ENDBRANCH  21  22
BRANCH  21  24
ATOM     24  CB  GLU A  11       5.181   0.000  24.751  0.00  0.00    +0.039 C 
BRANCH  24  25
ATOM     25  CG  GLU A  11       4.089   0.678  23.976  0.00  0.00    +0.116 C 
BRANCH  25  26
ATOM     26  CD  GLU A  11       3.939   0.146  22.569  0.00  0.00    +0.365 C 
ATOM     27  OE2 GLU A  11       2.779  -0.163  22.200  0.00  0.00    -0.246 OA
ATOM     28  OE1 GLU A  11       4.959   0.074  21.825  0.00  0.00    -0.246 OA
ENDBRANCH  25  26
ENDBRANCH  24  25
ENDBRANCH  21  24
ENDBRANCH  19  21
ENDBRANCH  16  17
BRANCH  16  29
ATOM     29  CB  TRP A  10       4.842   4.102  28.981  0.00  0.00    +0.057 C 
BRANCH  29  30
ATOM     30  CG  TRP A  10       5.761   3.437  29.943  0.00  0.00    -0.002 A 
ATOM     31  CD2 TRP A  10       6.955   3.998  30.514  0.00  0.00    +0.013 A 
ATOM     32  CE2 TRP A  10       7.504   3.024  31.375  0.00  0.00    +0.056 A 
ATOM     33  CZ2 TRP A  10       8.674   3.248  32.106  0.00  0.00    +0.017 A 
ATOM     34  CH2 TRP A  10       9.291   4.460  31.951  0.00  0.00    +0.001 A 
ATOM     35  CZ3 TRP A  10       8.763   5.447  31.104  0.00  0.00    +0.000 A 
ATOM     36  NE1 TRP A  10       6.678   1.928  31.337  0.00  0.00    -0.352 N 
ATOM     37  HE1 TRP A  10       6.816   1.049  31.876  0.00  0.00    +0.166 HD
ATOM     38  CE3 TRP A  10       7.606   5.230  30.387  0.00  0.00    +0.001 A 
ATOM     39  CD1 TRP A  10       5.637   2.178  30.471  0.00  0.00    +0.068 A 
ENDBRANCH  29  30
ENDBRANCH  16  29
ENDBRANCH  13  16
ENDBRANCH  11  12
BRANCH  11  40
ATOM     40  CB  LYS A   9       2.901   5.482  23.851  0.00  0.00    +0.029 C 
BRANCH  40  41
ATOM     41  CG  LYS A   9       2.135   4.413  24.631  0.00  0.00    +0.000 C 
BRANCH  41  42
ATOM     42  CD  LYS A   9       0.888   3.927  23.974  0.00  0.00    -0.024 C 
BRANCH  42  43
ATOM     43  CE  LYS A   9      -0.249   3.843  25.007  0.00  0.00    -0.086 C 
BRANCH  43  44
ATOM     44  NZ  LYS A   9       0.249   3.800  26.442  0.00  0.00    +0.380 N 
ATOM     45  HZ1 LYS A   9      -0.564   3.744  27.088  0.00  0.00    -0.089 HD
ATOM     46  HZ2 LYS A   9       0.795   4.662  26.644  0.00  0.00    -0.089 HD
ATOM     47  HZ3 LYS A   9       0.855   2.965  26.572  0.00  0.00    -0.089 HD
ENDBRANCH  43  44
ENDBRANCH  42  43
ENDBRANCH  41  42
ENDBRANCH  40  41
ENDBRANCH  11  40
ENDBRANCH   9  11
ENDBRANCH   6   7
BRANCH   6  48
ATOM     48  CB  GLN A   8       6.484   9.821  24.210  0.00  0.00    +0.039 C 
BRANCH  48  49
ATOM     49  CG  GLN A   8       7.732  10.560  23.753  0.00  0.00    +0.087 C 
BRANCH  49  50
ATOM     50  CD  GLN A   8       7.787  11.998  24.267  0.00  0.00    +0.219 C 
ATOM     51  OE1 GLN A   8       7.717  12.275  25.494  0.00  0.00    -0.275 OA
ATOM     52  NE2 GLN A   8       7.898  12.936  23.322  0.00  0.00    -0.329 N 
ATOM     53 HE21 GLN A   8       7.930  13.941  23.588  0.00  0.00    +0.145 HD
ATOM     54 HE22 GLN A   8       7.953  12.661  22.320  0.00  0.00    +0.145 HD
ENDBRANCH  49  50
ENDBRANCH  48  49
ENDBRANCH   6  48
ENDBRANCH   3   6
ENDBRANCH   1   2
BRANCH   1  56
ATOM     55  C   LEU A   6       4.569  12.386  18.025  0.00  0.00    +0.241 C 
ATOM     56  N   LEU A   7       4.703  11.233  18.671  0.00  0.00    -0.297 N 
ATOM     57  H   LEU A   7       5.038  10.395  18.154  0.00  0.00    +0.150 HD
ATOM     58  O   LEU A   6       4.172  13.407  18.563  0.00  0.00    -0.273 OA
BRANCH  55  59
ATOM     59  CA  LEU A   6       4.933  12.392  16.540  0.00  0.00    +0.149 C 
BRANCH  59  61
ATOM     60  C   ILE A   5       2.908  12.285  15.219  0.00  0.00    +0.241 C 
ATOM     61  N   LEU A   6       3.845  13.015  15.801  0.00  0.00    -0.297 N 
ATOM     62  H   LEU A   6       3.804  14.052  15.729  0.00  0.00    +0.150 HD
ATOM     63  O   ILE A   5       2.962  11.063  15.147  0.00  0.00    -0.273 OA
BRANCH  60  64
ATOM     64  CA  ILE A   5       1.732  13.056  14.634  0.00  0.00    +0.149 C 
BRANCH  64  66
ATOM     65  C   GLU A   4       1.771  13.776  12.327  0.00  0.00    +0.241 C 
ATOM     66  N   ILE A   5       1.589  12.790  13.197  0.00  0.00    -0.297 N 
ATOM     67  H   ILE A   5       1.347  11.835  12.863  0.00  0.00    +0.150 HD
ATOM     68  O   GLU A   4       2.098  14.920  12.679  0.00  0.00    -0.273 OA
BRANCH  65  69
ATOM     69  CA  GLU A   4       1.580  13.439  10.844  0.00  0.00    +0.149 C 
BRANCH  69  72
ATOM     70  C   LEU A   3      -0.732  14.144  10.390  0.00  0.00    +0.241 C 
ATOM     71  O   LEU A   3      -1.243  13.140  10.887  0.00  0.00    -0.273 OA
ATOM     72  N   GLU A   4       0.583  14.321  10.263  0.00  0.00    -0.297 N 
ATOM     73  H   GLU A   4       0.915  15.140   9.715  0.00  0.00    +0.150 HD
BRANCH  70  74
ATOM     74  CA  LEU A   3      -1.606  15.281   9.872  0.00  0.00    +0.149 C 
BRANCH  74  76
ATOM     75  C   ASP A   2      -2.374  15.627   7.586  0.00  0.00    +0.241 C 
ATOM     76  N   LEU A   3      -2.378  14.896   8.689  0.00  0.00    -0.297 N 
ATOM     77  H   LEU A   3      -2.945  14.024   8.716  0.00  0.00    +0.150 HD
ATOM     78  O   ASP A   2      -1.625  16.585   7.438  0.00  0.00    -0.273 OA
BRANCH  75  79
ATOM     79  CA  ASP A   2      -3.344  15.179   6.466  0.00  0.00    +0.160 C 
BRANCH  79  82
ATOM     80  C   GLY A   1      -4.170  17.345   5.632  0.00  0.00    +0.240 C 
ATOM     81  O   GLY A   1      -5.001  17.490   6.537  0.00  0.00    -0.274 OA
ATOM     82  N   ASP A   2      -3.481  16.217   5.445  0.00  0.00    -0.297 N 
ATOM     83  H   ASP A   2      -3.018  16.069   4.526  0.00  0.00    +0.150 HD
BRANCH  80  84
ATOM     84  CA  GLY A   1      -3.947  18.466   4.623  0.00  0.00    +0.169 C 
BRANCH  84  85
ATOM     85  N   GLY A   1      -3.126  18.105   3.450  0.00  0.00    -0.236 NA
ATOM     86  H   GLY A   1      -2.102  18.283   3.481  0.00  0.00    +0.142 HD
ENDBRANCH  84  85
ENDBRANCH  80  84
ENDBRANCH  79  82
BRANCH  79  87
ATOM     87  CB  ASP A   2      -2.827  13.857   5.866  0.00  0.00    +0.143 C 
BRANCH  87  88
ATOM     88  CG  ASP A   2      -3.842  13.151   4.937  0.00  0.00    +0.367 C 
ATOM     89  OD2 ASP A   2      -5.077  13.348   5.067  0.00  0.00    -0.246 OA
ATOM     90  OD1 ASP A   2      -3.382  12.352   4.075  0.00  0.00    -0.246 OA
ENDBRANCH  87  88
ENDBRANCH  79  87
ENDBRANCH  75  79
ENDBRANCH  74  76
BRANCH  74  91
ATOM     91  CB  LEU A   3      -2.573  15.755  10.965  0.00  0.00    +0.029 C 
BRANCH  91  92
ATOM     92  CG  LEU A   3      -2.255  16.961  11.847  0.00  0.00    +0.002 C 
ATOM     93  CD2 LEU A   3      -1.384  16.575  13.037  0.00  0.00    +0.000 C 
ATOM     94  CD1 LEU A   3      -1.617  18.065  11.065  0.00  0.00    +0.000 C 
ENDBRANCH  91  92
ENDBRANCH  74  91
ENDBRANCH  70  74
ENDBRANCH  69  72
BRANCH  69  95
ATOM     95  CB  GLU A   4       2.928  13.596  10.109  0.00  0.00    +0.041 C 
BRANCH  95  96
ATOM     96  CG  GLU A   4       2.952  13.010   8.695  0.00  0.00    +0.116 C 
BRANCH  96  97
ATOM     97  CD  GLU A   4       4.358  12.823   8.103  0.00  0.00    +0.365 C 
ATOM     98  OE2 GLU A   4       5.359  12.802   8.863  0.00  0.00    -0.246 OA
ATOM     99  OE1 GLU A   4       4.460  12.678   6.857  0.00  0.00    -0.246 OA
ENDBRANCH  96  97
ENDBRANCH  95  96
ENDBRANCH  69  95
ENDBRANCH  65  69
ENDBRANCH  64  66
BRANCH  64 100
ATOM    100  CB  ILE A   5       0.463  12.704  15.434  0.00  0.00    +0.027 C 
ATOM    101  CG2 ILE A   5       0.646  13.093  16.918  0.00  0.00    +0.002 C 
BRANCH 100 102
ATOM    102  CG1 ILE A   5      -0.779  13.347  14.805  0.00  0.00    +0.002 C 
ATOM    103  CD1 ILE A   5      -2.062  12.588  15.048  0.00  0.00    +0.000 C 
ENDBRANCH 100 102
ENDBRANCH  64 100
ENDBRANCH  60  64
ENDBRANCH  59  61
BRANCH  59 104
ATOM    104  CB  LEU A   6       6.237  13.170  16.319  0.00  0.00    +0.029 C 
BRANCH 104 105
ATOM    105  CG  LEU A   6       6.848  13.243  14.911  0.00  0.00    +0.002 C 
ATOM    106  CD2 LEU A   6       8.219  13.887  14.991  0.00  0.00    +0.000 C 
ATOM    107  CD1 LEU A   6       6.990  11.850  14.394  0.00  0.00    +0.000 C 
ENDBRANCH 104 105
ENDBRANCH  59 104
ENDBRANCH  55  59
ENDBRANCH   1  56
BRANCH   1 108
ATOM    108  CB  LEU A   7       2.881  10.893  20.298  0.00  0.00    +0.029 C 
BRANCH 108 109
ATOM    109  CG  LEU A   7       2.106   9.631  19.867  0.00  0.00    +0.002 C 
ATOM    110  CD2 LEU A   7       2.315   8.505  20.847  0.00  0.00    +0.000 C 
ATOM    111  CD1 LEU A   7       2.422   9.176  18.455  0.00  0.00    +0.000 C 
ENDBRANCH 108 109
ENDBRANCH   1 108
TORSDOF 48
REMARK  Name = ../refined-set-2016/3uex/3uex_pocket.pdb
REMARK  245 active torsions:
REMARK  status: ('A' for Active; 'I' for Inactive)
REMARK    1  A    between atoms: _1  and  _3
REMARK    2  A    between atoms: _3  and  _4
REMARK    3  A    between atoms: _3  and  _6
REMARK    4  A    between atoms: _6  and  _7
REMARK    5  A    between atoms: _10  and  _12
REMARK    6  A    between atoms: _12  and  _13
REMARK    7  A    between atoms: _12  and  _15
REMARK    8  A    between atoms: _15  and  _16
REMARK    9  A    between atoms: _19  and  _21
REMARK   10  A    between atoms: _21  and  _22
REMARK   11  A    between atoms: _21  and  _24
REMARK   12  A    between atoms: _27  and  _29
REMARK   13  A    between atoms: _29  and  _30
REMARK   14  A    between atoms: _33  and  _35
REMARK   15  A    between atoms: _35  and  _36
REMARK   16  A    between atoms: _35  and  _38
REMARK   17  A    between atoms: _38  and  _39
REMARK   18  A    between atoms: _49  and  _51
REMARK   19  A    between atoms: _51  and  _52
REMARK   20  A    between atoms: _51  and  _54
REMARK   21  A    between atoms: _54  and  _55
REMARK   22  A    between atoms: _57  and  _59
REMARK   23  A    between atoms: _59  and  _60
REMARK   24  A    between atoms: _59  and  _62
REMARK   25  A    between atoms: _62  and  _63
REMARK   26  A    between atoms: _65  and  _67
REMARK   27  A    between atoms: _67  and  _68
REMARK   28  A    between atoms: _72  and  _73
REMARK   29  A    between atoms: _78  and  _80
REMARK   30  A    between atoms: _80  and  _81
REMARK   31  A    between atoms: _80  and  _83
REMARK   32  A    between atoms: _83  and  _84
REMARK   33  A    between atoms: _87  and  _89
REMARK   34  A    between atoms: _89  and  _90
REMARK   35  A    between atoms: _89  and  _92
REMARK   36  A    between atoms: _92  and  _93
REMARK   37  A    between atoms: _93  and  _94
REMARK   38  A    between atoms: _94  and  _95
REMARK   39  A    between atoms: _104  and  _106
REMARK   40  A    between atoms: _106  and  _107
REMARK   41  A    between atoms: _106  and  _109
REMARK   42  A    between atoms: _112  and  _114
REMARK   43  A    between atoms: _114  and  _115
REMARK   44  A    between atoms: _114  and  _117
REMARK   45  A    between atoms: _117  and  _118
REMARK   46  A    between atoms: _123  and  _124
REMARK   47  A    between atoms: _126  and  _128
REMARK   48  A    between atoms: _128  and  _129
REMARK   49  A    between atoms: _128  and  _131
REMARK   50  A    between atoms: _134  and  _136
REMARK   51  A    between atoms: _136  and  _137
REMARK   52  A    between atoms: _136  and  _139
REMARK   53  A    between atoms: _139  and  _140
REMARK   54  A    between atoms: _140  and  _141
REMARK   55  A    between atoms: _144  and  _146
REMARK   56  A    between atoms: _146  and  _147
REMARK   57  A    between atoms: _146  and  _149
REMARK   58  A    between atoms: _149  and  _150
REMARK   59  A    between atoms: _150  and  _151
REMARK   60  A    between atoms: _154  and  _156
REMARK   61  A    between atoms: _156  and  _157
REMARK   62  A    between atoms: _156  and  _159
REMARK   63  A    between atoms: _159  and  _160
REMARK   64  A    between atoms: _163  and  _165
REMARK   65  A    between atoms: _165  and  _166
REMARK   66  A    between atoms: _165  and  _168
REMARK   67  A    between atoms: _168  and  _169
REMARK   68  A    between atoms: _169  and  _170
REMARK   69  A    between atoms: _170  and  _171
REMARK   70  A    between atoms: _171  and  _172
REMARK   71  A    between atoms: _177  and  _178
REMARK   72  A    between atoms: _183  and  _185
REMARK   73  A    between atoms: _185  and  _186
REMARK   74  A    between atoms: _188  and  _190
REMARK   75  A    between atoms: _190  and  _191
REMARK   76  A    between atoms: _190  and  _193
REMARK   77  A    between atoms: _193  and  _194
REMARK   78  A    between atoms: _197  and  _199
REMARK   79  A    between atoms: _199  and  _200
REMARK   80  A    between atoms: _199  and  _202
REMARK   81  A    between atoms: _202  and  _203
REMARK   82  A    between atoms: _206  and  _208
REMARK   83  A    between atoms: _208  and  _209
REMARK   84  A    between atoms: _208  and  _211
REMARK   85  A    between atoms: _211  and  _212
REMARK   86  A    between atoms: _212  and  _213
REMARK   87  A    between atoms: _216  and  _218
REMARK   88  A    between atoms: _218  and  _219
REMARK   89  A    between atoms: _218  and  _221
REMARK   90  A    between atoms: _221  and  _222
REMARK   91  A    between atoms: _225  and  _227
REMARK   92  A    between atoms: _227  and  _228
REMARK   93  A    between atoms: _227  and  _230
REMARK   94  A    between atoms: _230  and  _231
REMARK   95  A    between atoms: _234  and  _236
REMARK   96  A    between atoms: _236  and  _237
REMARK   97  A    between atoms: _236  and  _239
REMARK   98  A    between atoms: _239  and  _240
REMARK   99  A    between atoms: _243  and  _245
REMARK  100  A    between atoms: _245  and  _246
REMARK  101  A    between atoms: _245  and  _248
REMARK  102  A    between atoms: _248  and  _249
REMARK  103  A    between atoms: _249  and  _250
REMARK  104  A    between atoms: _255  and  _257
REMARK  105  A    between atoms: _257  and  _258
REMARK  106  A    between atoms: _257  and  _260
REMARK  107  A    between atoms: _260  and  _261
REMARK  108  A    between atoms: _261  and  _262
REMARK  109  A    between atoms: _262  and  _263
REMARK  110  A    between atoms: _263  and  _264
REMARK  111  A    between atoms: _268  and  _270
REMARK  112  A    between atoms: _270  and  _271
REMARK  113  A    between atoms: _270  and  _273
REMARK  114  A    between atoms: _273  and  _274
REMARK  115  A    between atoms: _284  and  _286
REMARK  116  A    between atoms: _286  and  _287
REMARK  117  A    between atoms: _286  and  _289
REMARK  118  A    between atoms: _289  and  _290
REMARK  119  A    between atoms: _290  and  _291
REMARK  120  A    between atoms: _294  and  _296
REMARK  121  A    between atoms: _296  and  _297
REMARK  122  A    between atoms: _300  and  _302
REMARK  123  A    between atoms: _302  and  _303
REMARK  124  A    between atoms: _302  and  _305
REMARK  125  A    between atoms: _305  and  _306
REMARK  126  A    between atoms: _306  and  _307
REMARK  127  A    between atoms: _307  and  _308
REMARK  128  A    between atoms: _308  and  _309
REMARK  129  A    between atoms: _313  and  _315
REMARK  130  A    between atoms: _315  and  _316
REMARK  131  A    between atoms: _315  and  _318
REMARK  132  A    between atoms: _318  and  _319
REMARK  133  A    between atoms: _319  and  _320
REMARK  134  A    between atoms: _320  and  _321
REMARK  135  A    between atoms: _321  and  _322
REMARK  136  A    between atoms: _326  and  _328
REMARK  137  A    between atoms: _328  and  _329
REMARK  138  A    between atoms: _328  and  _331
REMARK  139  A    between atoms: _331  and  _332
REMARK  140  A    between atoms: _335  and  _337
REMARK  141  A    between atoms: _337  and  _338
REMARK  142  A    between atoms: _341  and  _343
REMARK  143  A    between atoms: _343  and  _344
REMARK  144  A    between atoms: _343  and  _346
REMARK  145  A    between atoms: _346  and  _347
REMARK  146  A    between atoms: _347  and  _348
REMARK  147  A    between atoms: _348  and  _349
REMARK  148  A    between atoms: _349  and  _350
REMARK  149  A    between atoms: _355  and  _356
REMARK  150  A    between atoms: _361  and  _363
REMARK  151  A    between atoms: _363  and  _364
REMARK  152  A    between atoms: _367  and  _369
REMARK  153  A    between atoms: _369  and  _370
REMARK  154  A    between atoms: _369  and  _372
REMARK  155  A    between atoms: _375  and  _377
REMARK  156  A    between atoms: _377  and  _378
REMARK  157  A    between atoms: _377  and  _380
REMARK  158  A    between atoms: _380  and  _381
REMARK  159  A    between atoms: _387  and  _389
REMARK  160  A    between atoms: _389  and  _390
REMARK  161  A    between atoms: _389  and  _392
REMARK  162  A    between atoms: _392  and  _393
REMARK  163  A    between atoms: _396  and  _398
REMARK  164  A    between atoms: _398  and  _399
REMARK  165  A    between atoms: _398  and  _401
REMARK  166  A    between atoms: _401  and  _402
REMARK  167  A    between atoms: _405  and  _407
REMARK  168  A    between atoms: _407  and  _408
REMARK  169  A    between atoms: _407  and  _410
REMARK  170  A    between atoms: _410  and  _411
REMARK  171  A    between atoms: _414  and  _416
REMARK  172  A    between atoms: _416  and  _417
REMARK  173  A    between atoms: _416  and  _419
REMARK  174  A    between atoms: _419  and  _420
REMARK  175  A    between atoms: _425  and  _427
REMARK  176  A    between atoms: _427  and  _428
REMARK  177  A    between atoms: _427  and  _430
REMARK  178  A    between atoms: _430  and  _431
REMARK  179  A    between atoms: _431  and  _432
REMARK  180  A    between atoms: _432  and  _433
REMARK  181  A    between atoms: _433  and  _434
REMARK  182  A    between atoms: _438  and  _440
REMARK  183  A    between atoms: _440  and  _441
REMARK  184  A    between atoms: _440  and  _443
REMARK  185  A    between atoms: _446  and  _448
REMARK  186  A    between atoms: _448  and  _449
REMARK  187  A    between atoms: _448  and  _451
REMARK  188  A    between atoms: _451  and  _452
REMARK  189  A    between atoms: _455  and  _457
REMARK  190  A    between atoms: _457  and  _458
REMARK  191  A    between atoms: _457  and  _460
REMARK  192  A    between atoms: _463  and  _465
REMARK  193  A    between atoms: _465  and  _466
REMARK  194  A    between atoms: _465  and  _468
REMARK  195  A    between atoms: _468  and  _469
REMARK  196  A    between atoms: _472  and  _474
REMARK  197  A    between atoms: _474  and  _475
REMARK  198  A    between atoms: _474  and  _477
REMARK  199  A    between atoms: _477  and  _478
REMARK  200  A    between atoms: _481  and  _483
REMARK  201  A    between atoms: _483  and  _484
REMARK  202  A    between atoms: _483  and  _486
REMARK  203  A    between atoms: _486  and  _487
REMARK  204  A    between atoms: _490  and  _492
REMARK  205  A    between atoms: _492  and  _493
REMARK  206  A    between atoms: _492  and  _495
REMARK  207  A    between atoms: _495  and  _496
REMARK  208  A    between atoms: _499  and  _501
REMARK  209  A    between atoms: _501  and  _502
REMARK  210  A    between atoms: _501  and  _504
REMARK  211  A    between atoms: _504  and  _505
REMARK  212  A    between atoms: _508  and  _510
REMARK  213  A    between atoms: _510  and  _511
REMARK  214  A    between atoms: _510  and  _513
REMARK  215  A    between atoms: _513  and  _514
REMARK  216  A    between atoms: _520  and  _522
REMARK  217  A    between atoms: _522  and  _523
REMARK  218  A    between atoms: _522  and  _525
REMARK  219  A    between atoms: _525  and  _526
REMARK  220  A    between atoms: _526  and  _558
REMARK  221  A    between atoms: _527  and  _529
REMARK  222  A    between atoms: _529  and  _530
REMARK  223  A    between atoms: _529  and  _532
REMARK  224  A    between atoms: _532  and  _533
REMARK  225  A    between atoms: _533  and  _534
REMARK  226  A    between atoms: _536  and  _538
REMARK  227  A    between atoms: _538  and  _539
REMARK  228  A    between atoms: _538  and  _541
REMARK  229  A    between atoms: _541  and  _542
REMARK  230  A    between atoms: _542  and  _543
REMARK  231  A    between atoms: _546  and  _548
REMARK  232  A    between atoms: _548  and  _549
REMARK  233  A    between atoms: _552  and  _554
REMARK  234  A    between atoms: _554  and  _555
REMARK  235  A    between atoms: _554  and  _557
REMARK  236  A    between atoms: _557  and  _558
REMARK  237  A    between atoms: _559  and  _561
REMARK  238  A    between atoms: _561  and  _562
REMARK  239  A    between atoms: _561  and  _564
REMARK  240  A    between atoms: _564  and  _565
REMARK  241  A    between atoms: _565  and  _566
REMARK  242  A    between atoms: _571  and  _573
REMARK  243  A    between atoms: _573  and  _574
REMARK  244  A    between atoms: _573  and  _576
REMARK  245  A    between atoms: _576  and  _577
REMARK                            x       y       z     vdW  Elec       q    Type
REMARK                         _______ _______ _______ _____ _____    ______ ____
ROOT
ATOM      1  CA  ALA A   1       8.624   4.485  23.066  0.00  0.00    +0.133 C 
ATOM      2  CB  ALA A   1       7.862   3.229  22.618  0.00  0.00    +0.027 C 
ENDROOT
BRANCH   1   3
ATOM      3  N   ALA A   1       8.384   4.752  24.492  0.00  0.00    -0.239 NA
ATOM      4  H   ALA A   1       7.445   4.561  24.896  0.00  0.00    +0.142 HD
ENDBRANCH   1   3
BRANCH   1   5
ATOM      5  C   ALA A   1       8.306   5.673  22.152  0.00  0.00    +0.224 C 
ATOM      6  O   ALA A   1       7.442   6.497  22.458  0.00  0.00    -0.287 OA
ENDBRANCH   1   5
TORSDOF 2
REMARK  Name = ../refined-set-2016/3uex/3uex_pocket.pdb
REMARK  245 active torsions:
REMARK  status: ('A' for Active; 'I' for Inactive)
REMARK    1  A    between atoms: _1  and  _3
REMARK    2  A    between atoms: _3  and  _4
REMARK    3  A    between atoms: _3  and  _6
REMARK    4  A    between atoms: _6  and  _7
REMARK    5  A    between atoms: _10  and  _12
REMARK    6  A    between atoms: _12  and  _13
REMARK    7  A    between atoms: _12  and  _15
REMARK    8  A    between atoms: _15  and  _16
REMARK    9  A    between atoms: _19  and  _21
REMARK   10  A    between atoms: _21  and  _22
REMARK   11  A    between atoms: _21  and  _24
REMARK   12  A    between atoms: _27  and  _29
REMARK   13  A    between atoms: _29  and  _30
REMARK   14  A    between atoms: _33  and  _35
REMARK   15  A    between atoms: _35  and  _36
REMARK   16  A    between atoms: _35  and  _38
REMARK   17  A    between atoms: _38  and  _39
REMARK   18  A    between atoms: _49  and  _51
REMARK   19  A    between atoms: _51  and  _52
REMARK   20  A    between atoms: _51  and  _54
REMARK   21  A    between atoms: _54  and  _55
REMARK   22  A    between atoms: _57  and  _59
REMARK   23  A    between atoms: _59  and  _60
REMARK   24  A    between atoms: _59  and  _62
REMARK   25  A    between atoms: _62  and  _63
REMARK   26  A    between atoms: _65  and  _67
REMARK   27  A    between atoms: _67  and  _68
REMARK   28  A    between atoms: _72  and  _73
REMARK   29  A    between atoms: _78  and  _80
REMARK   30  A    between atoms: _80  and  _81
REMARK   31  A    between atoms: _80  and  _83
REMARK   32  A    between atoms: _83  and  _84
REMARK   33  A    between atoms: _87  and  _89
REMARK   34  A    between atoms: _89  and  _90
REMARK   35  A    between atoms: _89  and  _92
REMARK   36  A    between atoms: _92  and  _93
REMARK   37  A    between atoms: _93  and  _94
REMARK   38  A    between atoms: _94  and  _95
REMARK   39  A    between atoms: _104  and  _106
REMARK   40  A    between atoms: _106  and  _107
REMARK   41  A    between atoms: _106  and  _109
REMARK   42  A    between atoms: _112  and  _114
REMARK   43  A    between atoms: _114  and  _115
REMARK   44  A    between atoms: _114  and  _117
REMARK   45  A    between atoms: _117  and  _118
REMARK   46  A    between atoms: _123  and  _124
REMARK   47  A    between atoms: _126  and  _128
REMARK   48  A    between atoms: _128  and  _129
REMARK   49  A    between atoms: _128  and  _131
REMARK   50  A    between atoms: _134  and  _136
REMARK   51  A    between atoms: _136  and  _137
REMARK   52  A    between atoms: _136  and  _139
REMARK   53  A    between atoms: _139  and  _140
REMARK   54  A    between atoms: _140  and  _141
REMARK   55  A    between atoms: _144  and  _146
REMARK   56  A    between atoms: _146  and  _147
REMARK   57  A    between atoms: _146  and  _149
REMARK   58  A    between atoms: _149  and  _150
REMARK   59  A    between atoms: _150  and  _151
REMARK   60  A    between atoms: _154  and  _156
REMARK   61  A    between atoms: _156  and  _157
REMARK   62  A    between atoms: _156  and  _159
REMARK   63  A    between atoms: _159  and  _160
REMARK   64  A    between atoms: _163  and  _165
REMARK   65  A    between atoms: _165  and  _166
REMARK   66  A    between atoms: _165  and  _168
REMARK   67  A    between atoms: _168  and  _169
REMARK   68  A    between atoms: _169  and  _170
REMARK   69  A    between atoms: _170  and  _171
REMARK   70  A    between atoms: _171  and  _172
REMARK   71  A    between atoms: _177  and  _178
REMARK   72  A    between atoms: _183  and  _185
REMARK   73  A    between atoms: _185  and  _186
REMARK   74  A    between atoms: _188  and  _190
REMARK   75  A    between atoms: _190  and  _191
REMARK   76  A    between atoms: _190  and  _193
REMARK   77  A    between atoms: _193  and  _194
REMARK   78  A    between atoms: _197  and  _199
REMARK   79  A    between atoms: _199  and  _200
REMARK   80  A    between atoms: _199  and  _202
REMARK   81  A    between atoms: _202  and  _203
REMARK   82  A    between atoms: _206  and  _208
REMARK   83  A    between atoms: _208  and  _209
REMARK   84  A    between atoms: _208  and  _211
REMARK   85  A    between atoms: _211  and  _212
REMARK   86  A    between atoms: _212  and  _213
REMARK   87  A    between atoms: _216  and  _218
REMARK   88  A    between atoms: _218  and  _219
REMARK   89  A    between atoms: _218  and  _221
REMARK   90  A    between atoms: _221  and  _222
REMARK   91  A    between atoms: _225  and  _227
REMARK   92  A    between atoms: _227  and  _228
REMARK   93  A    between atoms: _227  and  _230
REMARK   94  A    between atoms: _230  and  _231
REMARK   95  A    between atoms: _234  and  _236
REMARK   96  A    between atoms: _236  and  _237
REMARK   97  A    between atoms: _236  and  _239
REMARK   98  A    between atoms: _239  and  _240
REMARK   99  A    between atoms: _243  and  _245
REMARK  100  A    between atoms: _245  and  _246
REMARK  101  A    between atoms: _245  and  _248
REMARK  102  A    between atoms: _248  and  _249
REMARK  103  A    between atoms: _249  and  _250
REMARK  104  A    between atoms: _255  and  _257
REMARK  105  A    between atoms: _257  and  _258
REMARK  106  A    between atoms: _257  and  _260
REMARK  107  A    between atoms: _260  and  _261
REMARK  108  A    between atoms: _261  and  _262
REMARK  109  A    between atoms: _262  and  _263
REMARK  110  A    between atoms: _263  and  _264
REMARK  111  A    between atoms: _268  and  _270
REMARK  112  A    between atoms: _270  and  _271
REMARK  113  A    between atoms: _270  and  _273
REMARK  114  A    between atoms: _273  and  _274
REMARK  115  A    between atoms: _284  and  _286
REMARK  116  A    between atoms: _286  and  _287
REMARK  117  A    between atoms: _286  and  _289
REMARK  118  A    between atoms: _289  and  _290
REMARK  119  A    between atoms: _290  and  _291
REMARK  120  A    between atoms: _294  and  _296
REMARK  121  A    between atoms: _296  and  _297
REMARK  122  A    between atoms: _300  and  _302
REMARK  123  A    between atoms: _302  and  _303
REMARK  124  A    between atoms: _302  and  _305
REMARK  125  A    between atoms: _305  and  _306
REMARK  126  A    between atoms: _306  and  _307
REMARK  127  A    between atoms: _307  and  _308
REMARK  128  A    between atoms: _308  and  _309
REMARK  129  A    between atoms: _313  and  _315
REMARK  130  A    between atoms: _315  and  _316
REMARK  131  A    between atoms: _315  and  _318
REMARK  132  A    between atoms: _318  and  _319
REMARK  133  A    between atoms: _319  and  _320
REMARK  134  A    between atoms: _320  and  _321
REMARK  135  A    between atoms: _321  and  _322
REMARK  136  A    between atoms: _326  and  _328
REMARK  137  A    between atoms: _328  and  _329
REMARK  138  A    between atoms: _328  and  _331
REMARK  139  A    between atoms: _331  and  _332
REMARK  140  A    between atoms: _335  and  _337
REMARK  141  A    between atoms: _337  and  _338
REMARK  142  A    between atoms: _341  and  _343
REMARK  143  A    between atoms: _343  and  _344
REMARK  144  A    between atoms: _343  and  _346
REMARK  145  A    between atoms: _346  and  _347
REMARK  146  A    between atoms: _347  and  _348
REMARK  147  A    between atoms: _348  and  _349
REMARK  148  A    between atoms: _349  and  _350
REMARK  149  A    between atoms: _355  and  _356
REMARK  150  A    between atoms: _361  and  _363
REMARK  151  A    between atoms: _363  and  _364
REMARK  152  A    between atoms: _367  and  _369
REMARK  153  A    between atoms: _369  and  _370
REMARK  154  A    between atoms: _369  and  _372
REMARK  155  A    between atoms: _375  and  _377
REMARK  156  A    between atoms: _377  and  _378
REMARK  157  A    between atoms: _377  and  _380
REMARK  158  A    between atoms: _380  and  _381
REMARK  159  A    between atoms: _387  and  _389
REMARK  160  A    between atoms: _389  and  _390
REMARK  161  A    between atoms: _389  and  _392
REMARK  162  A    between atoms: _392  and  _393
REMARK  163  A    between atoms: _396  and  _398
REMARK  164  A    between atoms: _398  and  _399
REMARK  165  A    between atoms: _398  and  _401
REMARK  166  A    between atoms: _401  and  _402
REMARK  167  A    between atoms: _405  and  _407
REMARK  168  A    between atoms: _407  and  _408
REMARK  169  A    between atoms: _407  and  _410
REMARK  170  A    between atoms: _410  and  _411
REMARK  171  A    between atoms: _414  and  _416
REMARK  172  A    between atoms: _416  and  _417
REMARK  173  A    between atoms: _416  and  _419
REMARK  174  A    between atoms: _419  and  _420
REMARK  175  A    between atoms: _425  and  _427
REMARK  176  A    between atoms: _427  and  _428
REMARK  177  A    between atoms: _427  and  _430
REMARK  178  A    between atoms: _430  and  _431
REMARK  179  A    between atoms: _431  and  _432
REMARK  180  A    between atoms: _432  and  _433
REMARK  181  A    between atoms: _433  and  _434
REMARK  182  A    between atoms: _438  and  _440
REMARK  183  A    between atoms: _440  and  _441
REMARK  184  A    between atoms: _440  and  _443
REMARK  185  A    between atoms: _446  and  _448
REMARK  186  A    between atoms: _448  and  _449
REMARK  187  A    between atoms: _448  and  _451
REMARK  188  A    between atoms: _451  and  _452
REMARK  189  A    between atoms: _455  and  _457
REMARK  190  A    between atoms: _457  and  _458
REMARK  191  A    between atoms: _457  and  _460
REMARK  192  A    between atoms: _463  and  _465
REMARK  193  A    between atoms: _465  and  _466
REMARK  194  A    between atoms: _465  and  _468
REMARK  195  A    between atoms: _468  and  _469
REMARK  196  A    between atoms: _472  and  _474
REMARK  197  A    between atoms: _474  and  _475
REMARK  198  A    between atoms: _474  and  _477
REMARK  199  A    between atoms: _477  and  _478
REMARK  200  A    between atoms: _481  and  _483
REMARK  201  A    between atoms: _483  and  _484
REMARK  202  A    between atoms: _483  and  _486
REMARK  203  A    between atoms: _486  and  _487
REMARK  204  A    between atoms: _490  and  _492
REMARK  205  A    between atoms: _492  and  _493
REMARK  206  A    between atoms: _492  and  _495
REMARK  207  A    between atoms: _495  and  _496
REMARK  208  A    between atoms: _499  and  _501
REMARK  209  A    between atoms: _501  and  _502
REMARK  210  A    between atoms: _501  and  _504
REMARK  211  A    between atoms: _504  and  _505
REMARK  212  A    between atoms: _508  and  _510
REMARK  213  A    between atoms: _510  and  _511
REMARK  214  A    between atoms: _510  and  _513
REMARK  215  A    between atoms: _513  and  _514
REMARK  216  A    between atoms: _520  and  _522
REMARK  217  A    between atoms: _522  and  _523
REMARK  218  A    between atoms: _522  and  _525
REMARK  219  A    between atoms: _525  and  _526
REMARK  220  A    between atoms: _526  and  _558
REMARK  221  A    between atoms: _527  and  _529
REMARK  222  A    between atoms: _529  and  _530
REMARK  223  A    between atoms: _529  and  _532
REMARK  224  A    between atoms: _532  and  _533
REMARK  225  A    between atoms: _533  and  _534
REMARK  226  A    between atoms: _536  and  _538
REMARK  227  A    between atoms: _538  and  _539
REMARK  228  A    between atoms: _538  and  _541
REMARK  229  A    between atoms: _541  and  _542
REMARK  230  A    between atoms: _542  and  _543
REMARK  231  A    between atoms: _546  and  _548
REMARK  232  A    between atoms: _548  and  _549
REMARK  233  A    between atoms: _552  and  _554
REMARK  234  A    between atoms: _554  and  _555
REMARK  235  A    between atoms: _554  and  _557
REMARK  236  A    between atoms: _557  and  _558
REMARK  237  A    between atoms: _559  and  _561
REMARK  238  A    between atoms: _561  and  _562
REMARK  239  A    between atoms: _561  and  _564
REMARK  240  A    between atoms: _564  and  _565
REMARK  241  A    between atoms: _565  and  _566
REMARK  242  A    between atoms: _571  and  _573
REMARK  243  A    between atoms: _573  and  _574
REMARK  244  A    between atoms: _573  and  _576
REMARK  245  A    between atoms: _576  and  _577
REMARK                            x       y       z     vdW  Elec       q    Type
REMARK                         _______ _______ _______ _____ _____    ______ ____
ROOT
ATOM      1  CA  LYS A   2       4.527   7.970  14.503  0.00  0.00    +0.149 C 
ENDROOT
BRANCH   1   2
ATOM      2  C   LYS A   2       3.175   7.505  14.003  0.00  0.00    +0.241 C 
ATOM      3  N   ILE A   3       2.213   8.431  13.958  0.00  0.00    -0.298 N 
ATOM      4  H   ILE A   3       2.448   9.400  14.255  0.00  0.00    +0.150 HD
ATOM      5  O   LYS A   2       3.009   6.337  13.673  0.00  0.00    -0.273 OA
BRANCH   3   6
ATOM      6  CA  ILE A   3       0.841   8.154  13.511  0.00  0.00    +0.137 C 
BRANCH   6   7
ATOM      7  CB  ILE A   3      -0.146   8.196  14.712  0.00  0.00    +0.026 C 
ATOM      8  CG2 ILE A   3      -1.598   8.096  14.263  0.00  0.00    +0.002 C 
BRANCH   7   9
ATOM      9  CG1 ILE A   3       0.145   7.058  15.690  0.00  0.00    +0.002 C 
ATOM     10  CD1 ILE A   3      -0.929   6.880  16.732  0.00  0.00    +0.000 C 
ENDBRANCH   7   9
ENDBRANCH   6   7
BRANCH   6  11
ATOM     11  C   ILE A   3       0.407   9.163  12.431  0.00  0.00    +0.227 C 
ATOM     12  O   ILE A   3       0.888  10.288  12.401  0.00  0.00    -0.286 OA
ENDBRANCH   6  11
ENDBRANCH   3   6
ENDBRANCH   1   2
BRANCH   1  15
ATOM     13  C   LYS A   1       5.366   7.641  16.795  0.00  0.00    +0.238 C 
ATOM     14  O   LYS A   1       5.573   8.843  16.989  0.00  0.00    -0.274 OA
ATOM     15  N   LYS A   2       4.954   7.140  15.631  0.00  0.00    -0.297 N 
ATOM     16  H   LYS A   2       4.935   6.106  15.518  0.00  0.00    +0.150 HD
BRANCH  13  17
ATOM     17  CA  LYS A   1       5.614   6.618  17.909  0.00  0.00    +0.145 C 
BRANCH  17  18
ATOM     18  N   LYS A   1       6.684   7.010  18.824  0.00  0.00    -0.238 NA
ATOM     19  H   LYS A   1       6.633   7.930  19.307  0.00  0.00    +0.142 HD
ENDBRANCH  17  18
BRANCH  17  20
ATOM     20  CB  LYS A   1       4.326   6.333  18.677  0.00  0.00    +0.026 C 
BRANCH  20  21
ATOM     21  CG  LYS A   1       4.432   5.167  19.657  0.00  0.00    -0.000 C 
BRANCH  21  22
ATOM     22  CD  LYS A   1       3.353   4.157  19.364  0.00  0.00    -0.024 C 
BRANCH  22  23
ATOM     23  CE  LYS A   1       3.859   2.736  19.534  0.00  0.00    -0.086 C 
BRANCH  23  24
ATOM     24  NZ  LYS A   1       3.647   2.320  20.932  0.00  0.00    +0.380 N 
ATOM     25  HZ1 LYS A   1       4.169   2.959  21.565  0.00  0.00    -0.089 HD
ATOM     26  HZ2 LYS A   1       2.632   2.362  21.155  0.00  0.00    -0.089 HD
ATOM     27  HZ3 LYS A   1       3.991   1.347  21.059  0.00  0.00    -0.089 HD
ENDBRANCH  23  24
ENDBRANCH  22  23
ENDBRANCH  21  22
ENDBRANCH  20  21
ENDBRANCH  17  20
ENDBRANCH  13  17
ENDBRANCH   1  15
BRANCH   1  28
ATOM     28  CB  LYS A   2       5.549   7.952  13.364  0.00  0.00    +0.029 C 
BRANCH  28  29
ATOM     29  CG  LYS A   2       5.020   8.523  12.055  0.00  0.00    +0.000 C 
BRANCH  29  30
ATOM     30  CD  LYS A   2       5.863   9.656  11.511  0.00  0.00    -0.024 C 
BRANCH  30  31
ATOM     31  CE  LYS A   2       5.304  11.016  11.975  0.00  0.00    -0.086 C 
BRANCH  31  32
ATOM     32  NZ  LYS A   2       5.827  12.194  11.217  0.00  0.00    +0.380 N 
ATOM     33  HZ1 LYS A   2       5.400  13.064  11.594  0.00  0.00    -0.089 HD
ATOM     34  HZ2 LYS A   2       6.861  12.240  11.321  0.00  0.00    -0.089 HD
ATOM     35  HZ3 LYS A   2       5.583  12.094  10.211  0.00  0.00    -0.089 HD
ENDBRANCH  31  32
ENDBRANCH  30  31
ENDBRANCH  29  30
ENDBRANCH  28  29
ENDBRANCH   1  28
TORSDOF 18
REMARK  Name = ../refined-set-2016/3uex/3uex_pocket.pdb
REMARK  245 active torsions:
REMARK  status: ('A' for Active; 'I' for Inactive)
REMARK    1  A    between atoms: _1  and  _3
REMARK    2  A    between atoms: _3  and  _4
REMARK    3  A    between atoms: _3  and  _6
REMARK    4  A    between atoms: _6  and  _7
REMARK    5  A    between atoms: _10  and  _12
REMARK    6  A    between atoms: _12  and  _13
REMARK    7  A    between atoms: _12  and  _15
REMARK    8  A    between atoms: _15  and  _16
REMARK    9  A    between atoms: _19  and  _21
REMARK   10  A    between atoms: _21  and  _22
REMARK   11  A    between atoms: _21  and  _24
REMARK   12  A    between atoms: _27  and  _29
REMARK   13  A    between atoms: _29  and  _30
REMARK   14  A    between atoms: _33  and  _35
REMARK   15  A    between atoms: _35  and  _36
REMARK   16  A    between atoms: _35  and  _38
REMARK   17  A    between atoms: _38  and  _39
REMARK   18  A    between atoms: _49  and  _51
REMARK   19  A    between atoms: _51  and  _52
REMARK   20  A    between atoms: _51  and  _54
REMARK   21  A    between atoms: _54  and  _55
REMARK   22  A    between atoms: _57  and  _59
REMARK   23  A    between atoms: _59  and  _60
REMARK   24  A    between atoms: _59  and  _62
REMARK   25  A    between atoms: _62  and  _63
REMARK   26  A    between atoms: _65  and  _67
REMARK   27  A    between atoms: _67  and  _68
REMARK   28  A    between atoms: _72  and  _73
REMARK   29  A    between atoms: _78  and  _80
REMARK   30  A    between atoms: _80  and  _81
REMARK   31  A    between atoms: _80  and  _83
REMARK   32  A    between atoms: _83  and  _84
REMARK   33  A    between atoms: _87  and  _89
REMARK   34  A    between atoms: _89  and  _90
REMARK   35  A    between atoms: _89  and  _92
REMARK   36  A    between atoms: _92  and  _93
REMARK   37  A    between atoms: _93  and  _94
REMARK   38  A    between atoms: _94  and  _95
REMARK   39  A    between atoms: _104  and  _106
REMARK   40  A    between atoms: _106  and  _107
REMARK   41  A    between atoms: _106  and  _109
REMARK   42  A    between atoms: _112  and  _114
REMARK   43  A    between atoms: _114  and  _115
REMARK   44  A    between atoms: _114  and  _117
REMARK   45  A    between atoms: _117  and  _118
REMARK   46  A    between atoms: _123  and  _124
REMARK   47  A    between atoms: _126  and  _128
REMARK   48  A    between atoms: _128  and  _129
REMARK   49  A    between atoms: _128  and  _131
REMARK   50  A    between atoms: _134  and  _136
REMARK   51  A    between atoms: _136  and  _137
REMARK   52  A    between atoms: _136  and  _139
REMARK   53  A    between atoms: _139  and  _140
REMARK   54  A    between atoms: _140  and  _141
REMARK   55  A    between atoms: _144  and  _146
REMARK   56  A    between atoms: _146  and  _147
REMARK   57  A    between atoms: _146  and  _149
REMARK   58  A    between atoms: _149  and  _150
REMARK   59  A    between atoms: _150  and  _151
REMARK   60  A    between atoms: _154  and  _156
REMARK   61  A    between atoms: _156  and  _157
REMARK   62  A    between atoms: _156  and  _159
REMARK   63  A    between atoms: _159  and  _160
REMARK   64  A    between atoms: _163  and  _165
REMARK   65  A    between atoms: _165  and  _166
REMARK   66  A    between atoms: _165  and  _168
REMARK   67  A    between atoms: _168  and  _169
REMARK   68  A    between atoms: _169  and  _170
REMARK   69  A    between atoms: _170  and  _171
REMARK   70  A    between atoms: _171  and  _172
REMARK   71  A    between atoms: _177  and  _178
REMARK   72  A    between atoms: _183  and  _185
REMARK   73  A    between atoms: _185  and  _186
REMARK   74  A    between atoms: _188  and  _190
REMARK   75  A    between atoms: _190  and  _191
REMARK   76  A    between atoms: _190  and  _193
REMARK   77  A    between atoms: _193  and  _194
REMARK   78  A    between atoms: _197  and  _199
REMARK   79  A    between atoms: _199  and  _200
REMARK   80  A    between atoms: _199  and  _202
REMARK   81  A    between atoms: _202  and  _203
REMARK   82  A    between atoms: _206  and  _208
REMARK   83  A    between atoms: _208  and  _209
REMARK   84  A    between atoms: _208  and  _211
REMARK   85  A    between atoms: _211  and  _212
REMARK   86  A    between atoms: _212  and  _213
REMARK   87  A    between atoms: _216  and  _218
REMARK   88  A    between atoms: _218  and  _219
REMARK   89  A    between atoms: _218  and  _221
REMARK   90  A    between atoms: _221  and  _222
REMARK   91  A    between atoms: _225  and  _227
REMARK   92  A    between atoms: _227  and  _228
REMARK   93  A    between atoms: _227  and  _230
REMARK   94  A    between atoms: _230  and  _231
REMARK   95  A    between atoms: _234  and  _236
REMARK   96  A    between atoms: _236  and  _237
REMARK   97  A    between atoms: _236  and  _239
REMARK   98  A    between atoms: _239  and  _240
REMARK   99  A    between atoms: _243  and  _245
REMARK  100  A    between atoms: _245  and  _246
REMARK  101  A    between atoms: _245  and  _248
REMARK  102  A    between atoms: _248  and  _249
REMARK  103  A    between atoms: _249  and  _250
REMARK  104  A    between atoms: _255  and  _257
REMARK  105  A    between atoms: _257  and  _258
REMARK  106  A    between atoms: _257  and  _260
REMARK  107  A    between atoms: _260  and  _261
REMARK  108  A    between atoms: _261  and  _262
REMARK  109  A    between atoms: _262  and  _263
REMARK  110  A    between atoms: _263  and  _264
REMARK  111  A    between atoms: _268  and  _270
REMARK  112  A    between atoms: _270  and  _271
REMARK  113  A    between atoms: _270  and  _273
REMARK  114  A    between atoms: _273  and  _274
REMARK  115  A    between atoms: _284  and  _286
REMARK  116  A    between atoms: _286  and  _287
REMARK  117  A    between atoms: _286  and  _289
REMARK  118  A    between atoms: _289  and  _290
REMARK  119  A    between atoms: _290  and  _291
REMARK  120  A    between atoms: _294  and  _296
REMARK  121  A    between atoms: _296  and  _297
REMARK  122  A    between atoms: _300  and  _302
REMARK  123  A    between atoms: _302  and  _303
REMARK  124  A    between atoms: _302  and  _305
REMARK  125  A    between atoms: _305  and  _306
REMARK  126  A    between atoms: _306  and  _307
REMARK  127  A    between atoms: _307  and  _308
REMARK  128  A    between atoms: _308  and  _309
REMARK  129  A    between atoms: _313  and  _315
REMARK  130  A    between atoms: _315  and  _316
REMARK  131  A    between atoms: _315  and  _318
REMARK  132  A    between atoms: _318  and  _319
REMARK  133  A    between atoms: _319  and  _320
REMARK  134  A    between atoms: _320  and  _321
REMARK  135  A    between atoms: _321  and  _322
REMARK  136  A    between atoms: _326  and  _328
REMARK  137  A    between atoms: _328  and  _329
REMARK  138  A    between atoms: _328  and  _331
REMARK  139  A    between atoms: _331  and  _332
REMARK  140  A    between atoms: _335  and  _337
REMARK  141  A    between atoms: _337  and  _338
REMARK  142  A    between atoms: _341  and  _343
REMARK  143  A    between atoms: _343  and  _344
REMARK  144  A    between atoms: _343  and  _346
REMARK  145  A    between atoms: _346  and  _347
REMARK  146  A    between atoms: _347  and  _348
REMARK  147  A    between atoms: _348  and  _349
REMARK  148  A    between atoms: _349  and  _350
REMARK  149  A    between atoms: _355  and  _356
REMARK  150  A    between atoms: _361  and  _363
REMARK  151  A    between atoms: _363  and  _364
REMARK  152  A    between atoms: _367  and  _369
REMARK  153  A    between atoms: _369  and  _370
REMARK  154  A    between atoms: _369  and  _372
REMARK  155  A    between atoms: _375  and  _377
REMARK  156  A    between atoms: _377  and  _378
REMARK  157  A    between atoms: _377  and  _380
REMARK  158  A    between atoms: _380  and  _381
REMARK  159  A    between atoms: _387  and  _389
REMARK  160  A    between atoms: _389  and  _390
REMARK  161  A    between atoms: _389  and  _392
REMARK  162  A    between atoms: _392  and  _393
REMARK  163  A    between atoms: _396  and  _398
REMARK  164  A    between atoms: _398  and  _399
REMARK  165  A    between atoms: _398  and  _401
REMARK  166  A    between atoms: _401  and  _402
REMARK  167  A    between atoms: _405  and  _407
REMARK  168  A    between atoms: _407  and  _408
REMARK  169  A    between atoms: _407  and  _410
REMARK  170  A    between atoms: _410  and  _411
REMARK  171  A    between atoms: _414  and  _416
REMARK  172  A    between atoms: _416  and  _417
REMARK  173  A    between atoms: _416  and  _419
REMARK  174  A    between atoms: _419  and  _420
REMARK  175  A    between atoms: _425  and  _427
REMARK  176  A    between atoms: _427  and  _428
REMARK  177  A    between atoms: _427  and  _430
REMARK  178  A    between atoms: _430  and  _431
REMARK  179  A    between atoms: _431  and  _432
REMARK  180  A    between atoms: _432  and  _433
REMARK  181  A    between atoms: _433  and  _434
REMARK  182  A    between atoms: _438  and  _440
REMARK  183  A    between atoms: _440  and  _441
REMARK  184  A    between atoms: _440  and  _443
REMARK  185  A    between atoms: _446  and  _448
REMARK  186  A    between atoms: _448  and  _449
REMARK  187  A    between atoms: _448  and  _451
REMARK  188  A    between atoms: _451  and  _452
REMARK  189  A    between atoms: _455  and  _457
REMARK  190  A    between atoms: _457  and  _458
REMARK  191  A    between atoms: _457  and  _460
REMARK  192  A    between atoms: _463  and  _465
REMARK  193  A    between atoms: _465  and  _466
REMARK  194  A    between atoms: _465  and  _468
REMARK  195  A    between atoms: _468  and  _469
REMARK  196  A    between atoms: _472  and  _474
REMARK  197  A    between atoms: _474  and  _475
REMARK  198  A    between atoms: _474  and  _477
REMARK  199  A    between atoms: _477  and  _478
REMARK  200  A    between atoms: _481  and  _483
REMARK  201  A    between atoms: _483  and  _484
REMARK  202  A    between atoms: _483  and  _486
REMARK  203  A    between atoms: _486  and  _487
REMARK  204  A    between atoms: _490  and  _492
REMARK  205  A    between atoms: _492  and  _493
REMARK  206  A    between atoms: _492  and  _495
REMARK  207  A    between atoms: _495  and  _496
REMARK  208  A    between atoms: _499  and  _501
REMARK  209  A    between atoms: _501  and  _502
REMARK  210  A    between atoms: _501  and  _504
REMARK  211  A    between atoms: _504  and  _505
REMARK  212  A    between atoms: _508  and  _510
REMARK  213  A    between atoms: _510  and  _511
REMARK  214  A    between atoms: _510  and  _513
REMARK  215  A    between atoms: _513  and  _514
REMARK  216  A    between atoms: _520  and  _522
REMARK  217  A    between atoms: _522  and  _523
REMARK  218  A    between atoms: _522  and  _525
REMARK  219  A    between atoms: _525  and  _526
REMARK  220  A    between atoms: _526  and  _558
REMARK  221  A    between atoms: _527  and  _529
REMARK  222  A    between atoms: _529  and  _530
REMARK  223  A    between atoms: _529  and  _532
REMARK  224  A    between atoms: _532  and  _533
REMARK  225  A    between atoms: _533  and  _534
REMARK  226  A    between atoms: _536  and  _538
REMARK  227  A    between atoms: _538  and  _539
REMARK  228  A    between atoms: _538  and  _541
REMARK  229  A    between atoms: _541  and  _542
REMARK  230  A    between atoms: _542  and  _543
REMARK  231  A    between atoms: _546  and  _548
REMARK  232  A    between atoms: _548  and  _549
REMARK  233  A    between atoms: _552  and  _554
REMARK  234  A    between atoms: _554  and  _555
REMARK  235  A    between atoms: _554  and  _557
REMARK  236  A    between atoms: _557  and  _558
REMARK  237  A    between atoms: _559  and  _561
REMARK  238  A    between atoms: _561  and  _562
REMARK  239  A    between atoms: _561  and  _564
REMARK  240  A    between atoms: _564  and  _565
REMARK  241  A    between atoms: _565  and  _566
REMARK  242  A    between atoms: _571  and  _573
REMARK  243  A    between atoms: _573  and  _574
REMARK  244  A    between atoms: _573  and  _576
REMARK  245  A    between atoms: _576  and  _577
REMARK                            x       y       z     vdW  Elec       q    Type
REMARK                         _______ _______ _______ _____ _____    ______ ____
ROOT
ATOM      1  CA  ALA A   1      -4.350  11.508  11.087  0.00  0.00    +0.133 C 
ATOM      2  CB  ALA A   1      -4.532  12.520  12.164  0.00  0.00    +0.027 C 
ENDROOT
BRANCH   1   3
ATOM      3  N   ALA A   1      -2.943  11.165  10.937  0.00  0.00    -0.239 NA
ATOM      4  H   ALA A   1      -2.230  11.922  10.919  0.00  0.00    +0.142 HD
ENDBRANCH   1   3
BRANCH   1   5
ATOM      5  C   ALA A   1      -4.825  12.037   9.736  0.00  0.00    +0.224 C 
ATOM      6  O   ALA A   1      -4.354  13.082   9.253  0.00  0.00    -0.287 OA
ENDBRANCH   1   5
TORSDOF 2
REMARK  Name = ../refined-set-2016/3uex/3uex_pocket.pdb
REMARK  245 active torsions:
REMARK  status: ('A' for Active; 'I' for Inactive)
REMARK    1  A    between atoms: _1  and  _3
REMARK    2  A    between atoms: _3  and  _4
REMARK    3  A    between atoms: _3  and  _6
REMARK    4  A    between atoms: _6  and  _7
REMARK    5  A    between atoms: _10  and  _12
REMARK    6  A    between atoms: _12  and  _13
REMARK    7  A    between atoms: _12  and  _15
REMARK    8  A    between atoms: _15  and  _16
REMARK    9  A    between atoms: _19  and  _21
REMARK   10  A    between atoms: _21  and  _22
REMARK   11  A    between atoms: _21  and  _24
REMARK   12  A    between atoms: _27  and  _29
REMARK   13  A    between atoms: _29  and  _30
REMARK   14  A    between atoms: _33  and  _35
REMARK   15  A    between atoms: _35  and  _36
REMARK   16  A    between atoms: _35  and  _38
REMARK   17  A    between atoms: _38  and  _39
REMARK   18  A    between atoms: _49  and  _51
REMARK   19  A    between atoms: _51  and  _52
REMARK   20  A    between atoms: _51  and  _54
REMARK   21  A    between atoms: _54  and  _55
REMARK   22  A    between atoms: _57  and  _59
REMARK   23  A    between atoms: _59  and  _60
REMARK   24  A    between atoms: _59  and  _62
REMARK   25  A    between atoms: _62  and  _63
REMARK   26  A    between atoms: _65  and  _67
REMARK   27  A    between atoms: _67  and  _68
REMARK   28  A    between atoms: _72  and  _73
REMARK   29  A    between atoms: _78  and  _80
REMARK   30  A    between atoms: _80  and  _81
REMARK   31  A    between atoms: _80  and  _83
REMARK   32  A    between atoms: _83  and  _84
REMARK   33  A    between atoms: _87  and  _89
REMARK   34  A    between atoms: _89  and  _90
REMARK   35  A    between atoms: _89  and  _92
REMARK   36  A    between atoms: _92  and  _93
REMARK   37  A    between atoms: _93  and  _94
REMARK   38  A    between atoms: _94  and  _95
REMARK   39  A    between atoms: _104  and  _106
REMARK   40  A    between atoms: _106  and  _107
REMARK   41  A    between atoms: _106  and  _109
REMARK   42  A    between atoms: _112  and  _114
REMARK   43  A    between atoms: _114  and  _115
REMARK   44  A    between atoms: _114  and  _117
REMARK   45  A    between atoms: _117  and  _118
REMARK   46  A    between atoms: _123  and  _124
REMARK   47  A    between atoms: _126  and  _128
REMARK   48  A    between atoms: _128  and  _129
REMARK   49  A    between atoms: _128  and  _131
REMARK   50  A    between atoms: _134  and  _136
REMARK   51  A    between atoms: _136  and  _137
REMARK   52  A    between atoms: _136  and  _139
REMARK   53  A    between atoms: _139  and  _140
REMARK   54  A    between atoms: _140  and  _141
REMARK   55  A    between atoms: _144  and  _146
REMARK   56  A    between atoms: _146  and  _147
REMARK   57  A    between atoms: _146  and  _149
REMARK   58  A    between atoms: _149  and  _150
REMARK   59  A    between atoms: _150  and  _151
REMARK   60  A    between atoms: _154  and  _156
REMARK   61  A    between atoms: _156  and  _157
REMARK   62  A    between atoms: _156  and  _159
REMARK   63  A    between atoms: _159  and  _160
REMARK   64  A    between atoms: _163  and  _165
REMARK   65  A    between atoms: _165  and  _166
REMARK   66  A    between atoms: _165  and  _168
REMARK   67  A    between atoms: _168  and  _169
REMARK   68  A    between atoms: _169  and  _170
REMARK   69  A    between atoms: _170  and  _171
REMARK   70  A    between atoms: _171  and  _172
REMARK   71  A    between atoms: _177  and  _178
REMARK   72  A    between atoms: _183  and  _185
REMARK   73  A    between atoms: _185  and  _186
REMARK   74  A    between atoms: _188  and  _190
REMARK   75  A    between atoms: _190  and  _191
REMARK   76  A    between atoms: _190  and  _193
REMARK   77  A    between atoms: _193  and  _194
REMARK   78  A    between atoms: _197  and  _199
REMARK   79  A    between atoms: _199  and  _200
REMARK   80  A    between atoms: _199  and  _202
REMARK   81  A    between atoms: _202  and  _203
REMARK   82  A    between atoms: _206  and  _208
REMARK   83  A    between atoms: _208  and  _209
REMARK   84  A    between atoms: _208  and  _211
REMARK   85  A    between atoms: _211  and  _212
REMARK   86  A    between atoms: _212  and  _213
REMARK   87  A    between atoms: _216  and  _218
REMARK   88  A    between atoms: _218  and  _219
REMARK   89  A    between atoms: _218  and  _221
REMARK   90  A    between atoms: _221  and  _222
REMARK   91  A    between atoms: _225  and  _227
REMARK   92  A    between atoms: _227  and  _228
REMARK   93  A    between atoms: _227  and  _230
REMARK   94  A    between atoms: _230  and  _231
REMARK   95  A    between atoms: _234  and  _236
REMARK   96  A    between atoms: _236  and  _237
REMARK   97  A    between atoms: _236  and  _239
REMARK   98  A    between atoms: _239  and  _240
REMARK   99  A    between atoms: _243  and  _245
REMARK  100  A    between atoms: _245  and  _246
REMARK  101  A    between atoms: _245  and  _248
REMARK  102  A    between atoms: _248  and  _249
REMARK  103  A    between atoms: _249  and  _250
REMARK  104  A    between atoms: _255  and  _257
REMARK  105  A    between atoms: _257  and  _258
REMARK  106  A    between atoms: _257  and  _260
REMARK  107  A    between atoms: _260  and  _261
REMARK  108  A    between atoms: _261  and  _262
REMARK  109  A    between atoms: _262  and  _263
REMARK  110  A    between atoms: _263  and  _264
REMARK  111  A    between atoms: _268  and  _270
REMARK  112  A    between atoms: _270  and  _271
REMARK  113  A    between atoms: _270  and  _273
REMARK  114  A    between atoms: _273  and  _274
REMARK  115  A    between atoms: _284  and  _286
REMARK  116  A    between atoms: _286  and  _287
REMARK  117  A    between atoms: _286  and  _289
REMARK  118  A    between atoms: _289  and  _290
REMARK  119  A    between atoms: _290  and  _291
REMARK  120  A    between atoms: _294  and  _296
REMARK  121  A    between atoms: _296  and  _297
REMARK  122  A    between atoms: _300  and  _302
REMARK  123  A    between atoms: _302  and  _303
REMARK  124  A    between atoms: _302  and  _305
REMARK  125  A    between atoms: _305  and  _306
REMARK  126  A    between atoms: _306  and  _307
REMARK  127  A    between atoms: _307  and  _308
REMARK  128  A    between atoms: _308  and  _309
REMARK  129  A    between atoms: _313  and  _315
REMARK  130  A    between atoms: _315  and  _316
REMARK  131  A    between atoms: _315  and  _318
REMARK  132  A    between atoms: _318  and  _319
REMARK  133  A    between atoms: _319  and  _320
REMARK  134  A    between atoms: _320  and  _321
REMARK  135  A    between atoms: _321  and  _322
REMARK  136  A    between atoms: _326  and  _328
REMARK  137  A    between atoms: _328  and  _329
REMARK  138  A    between atoms: _328  and  _331
REMARK  139  A    between atoms: _331  and  _332
REMARK  140  A    between atoms: _335  and  _337
REMARK  141  A    between atoms: _337  and  _338
REMARK  142  A    between atoms: _341  and  _343
REMARK  143  A    between atoms: _343  and  _344
REMARK  144  A    between atoms: _343  and  _346
REMARK  145  A    between atoms: _346  and  _347
REMARK  146  A    between atoms: _347  and  _348
REMARK  147  A    between atoms: _348  and  _349
REMARK  148  A    between atoms: _349  and  _350
REMARK  149  A    between atoms: _355  and  _356
REMARK  150  A    between atoms: _361  and  _363
REMARK  151  A    between atoms: _363  and  _364
REMARK  152  A    between atoms: _367  and  _369
REMARK  153  A    between atoms: _369  and  _370
REMARK  154  A    between atoms: _369  and  _372
REMARK  155  A    between atoms: _375  and  _377
REMARK  156  A    between atoms: _377  and  _378
REMARK  157  A    between atoms: _377  and  _380
REMARK  158  A    between atoms: _380  and  _381
REMARK  159  A    between atoms: _387  and  _389
REMARK  160  A    between atoms: _389  and  _390
REMARK  161  A    between atoms: _389  and  _392
REMARK  162  A    between atoms: _392  and  _393
REMARK  163  A    between atoms: _396  and  _398
REMARK  164  A    between atoms: _398  and  _399
REMARK  165  A    between atoms: _398  and  _401
REMARK  166  A    between atoms: _401  and  _402
REMARK  167  A    between atoms: _405  and  _407
REMARK  168  A    between atoms: _407  and  _408
REMARK  169  A    between atoms: _407  and  _410
REMARK  170  A    between atoms: _410  and  _411
REMARK  171  A    between atoms: _414  and  _416
REMARK  172  A    between atoms: _416  and  _417
REMARK  173  A    between atoms: _416  and  _419
REMARK  174  A    between atoms: _419  and  _420
REMARK  175  A    between atoms: _425  and  _427
REMARK  176  A    between atoms: _427  and  _428
REMARK  177  A    between atoms: _427  and  _430
REMARK  178  A    between atoms: _430  and  _431
REMARK  179  A    between atoms: _431  and  _432
REMARK  180  A    between atoms: _432  and  _433
REMARK  181  A    between atoms: _433  and  _434
REMARK  182  A    between atoms: _438  and  _440
REMARK  183  A    between atoms: _440  and  _441
REMARK  184  A    between atoms: _440  and  _443
REMARK  185  A    between atoms: _446  and  _448
REMARK  186  A    between atoms: _448  and  _449
REMARK  187  A    between atoms: _448  and  _451
REMARK  188  A    between atoms: _451  and  _452
REMARK  189  A    between atoms: _455  and  _457
REMARK  190  A    between atoms: _457  and  _458
REMARK  191  A    between atoms: _457  and  _460
REMARK  192  A    between atoms: _463  and  _465
REMARK  193  A    between atoms: _465  and  _466
REMARK  194  A    between atoms: _465  and  _468
REMARK  195  A    between atoms: _468  and  _469
REMARK  196  A    between atoms: _472  and  _474
REMARK  197  A    between atoms: _474  and  _475
REMARK  198  A    between atoms: _474  and  _477
REMARK  199  A    between atoms: _477  and  _478
REMARK  200  A    between atoms: _481  and  _483
REMARK  201  A    between atoms: _483  and  _484
REMARK  202  A    between atoms: _483  and  _486
REMARK  203  A    between atoms: _486  and  _487
REMARK  204  A    between atoms: _490  and  _492
REMARK  205  A    between atoms: _492  and  _493
REMARK  206  A    between atoms: _492  and  _495
REMARK  207  A    between atoms: _495  and  _496
REMARK  208  A    between atoms: _499  and  _501
REMARK  209  A    between atoms: _501  and  _502
REMARK  210  A    between atoms: _501  and  _504
REMARK  211  A    between atoms: _504  and  _505
REMARK  212  A    between atoms: _508  and  _510
REMARK  213  A    between atoms: _510  and  _511
REMARK  214  A    between atoms: _510  and  _513
REMARK  215  A    between atoms: _513  and  _514
REMARK  216  A    between atoms: _520  and  _522
REMARK  217  A    between atoms: _522  and  _523
REMARK  218  A    between atoms: _522  and  _525
REMARK  219  A    between atoms: _525  and  _526
REMARK  220  A    between atoms: _526  and  _558
REMARK  221  A    between atoms: _527  and  _529
REMARK  222  A    between atoms: _529  and  _530
REMARK  223  A    between atoms: _529  and  _532
REMARK  224  A    between atoms: _532  and  _533
REMARK  225  A    between atoms: _533  and  _534
REMARK  226  A    between atoms: _536  and  _538
REMARK  227  A    between atoms: _538  and  _539
REMARK  228  A    between atoms: _538  and  _541
REMARK  229  A    between atoms: _541  and  _542
REMARK  230  A    between atoms: _542  and  _543
REMARK  231  A    between atoms: _546  and  _548
REMARK  232  A    between atoms: _548  and  _549
REMARK  233  A    between atoms: _552  and  _554
REMARK  234  A    between atoms: _554  and  _555
REMARK  235  A    between atoms: _554  and  _557
REMARK  236  A    between atoms: _557  and  _558
REMARK  237  A    between atoms: _559  and  _561
REMARK  238  A    between atoms: _561  and  _562
REMARK  239  A    between atoms: _561  and  _564
REMARK  240  A    between atoms: _564  and  _565
REMARK  241  A    between atoms: _565  and  _566
REMARK  242  A    between atoms: _571  and  _573
REMARK  243  A    between atoms: _573  and  _574
REMARK  244  A    between atoms: _573  and  _576
REMARK  245  A    between atoms: _576  and  _577
REMARK                            x       y       z     vdW  Elec       q    Type
REMARK                         _______ _______ _______ _____ _____    ______ ____
ROOT
ATOM      1  CG  LYS A   1      -8.223  15.347   4.445  0.00  0.00    -0.000 C 
ENDROOT
BRANCH   1   2
ATOM      2  CB  LYS A   1      -8.156  15.723   5.927  0.00  0.00    +0.025 C 
BRANCH   2   3
ATOM      3  CA  LYS A   1      -8.507  14.604   6.905  0.00  0.00    +0.133 C 
BRANCH   3   4
ATOM      4  N   LYS A   1      -7.440  13.601   6.950  0.00  0.00    -0.239 NA
ATOM      5  H   LYS A   1      -6.670  13.652   6.252  0.00  0.00    +0.142 HD
ENDBRANCH   3   4
BRANCH   3   6
ATOM      6  C   LYS A   1      -9.909  14.016   6.616  0.00  0.00    +0.224 C 
ATOM      7  O   LYS A   1     -10.031  12.894   6.152  0.00  0.00    -0.287 OA
ENDBRANCH   3   6
ENDBRANCH   2   3
ENDBRANCH   1   2
BRANCH   1   8
ATOM      8  CD  LYS A   1      -7.847  16.553   3.592  0.00  0.00    -0.024 C 
BRANCH   8   9
ATOM      9  CE  LYS A   1      -7.812  16.232   2.096  0.00  0.00    -0.086 C 
BRANCH   9  10
ATOM     10  NZ  LYS A   1      -7.310  17.407   1.278  0.00  0.00    +0.380 N 
ATOM     11  HZ1 LYS A   1      -6.346  17.653   1.582  0.00  0.00    -0.089 HD
ATOM     12  HZ2 LYS A   1      -7.939  18.222   1.423  0.00  0.00    -0.089 HD
ATOM     13  HZ3 LYS A   1      -7.302  17.148   0.271  0.00  0.00    -0.089 HD
ENDBRANCH   9  10
ENDBRANCH   8   9
ENDBRANCH   1   8
TORSDOF 7
REMARK  Name = ../refined-set-2016/3uex/3uex_pocket.pdb
REMARK  245 active torsions:
REMARK  status: ('A' for Active; 'I' for Inactive)
REMARK    1  A    between atoms: _1  and  _3
REMARK    2  A    between atoms: _3  and  _4
REMARK    3  A    between atoms: _3  and  _6
REMARK    4  A    between atoms: _6  and  _7
REMARK    5  A    between atoms: _10  and  _12
REMARK    6  A    between atoms: _12  and  _13
REMARK    7  A    between atoms: _12  and  _15
REMARK    8  A    between atoms: _15  and  _16
REMARK    9  A    between atoms: _19  and  _21
REMARK   10  A    between atoms: _21  and  _22
REMARK   11  A    between atoms: _21  and  _24
REMARK   12  A    between atoms: _27  and  _29
REMARK   13  A    between atoms: _29  and  _30
REMARK   14  A    between atoms: _33  and  _35
REMARK   15  A    between atoms: _35  and  _36
REMARK   16  A    between atoms: _35  and  _38
REMARK   17  A    between atoms: _38  and  _39
REMARK   18  A    between atoms: _49  and  _51
REMARK   19  A    between atoms: _51  and  _52
REMARK   20  A    between atoms: _51  and  _54
REMARK   21  A    between atoms: _54  and  _55
REMARK   22  A    between atoms: _57  and  _59
REMARK   23  A    between atoms: _59  and  _60
REMARK   24  A    between atoms: _59  and  _62
REMARK   25  A    between atoms: _62  and  _63
REMARK   26  A    between atoms: _65  and  _67
REMARK   27  A    between atoms: _67  and  _68
REMARK   28  A    between atoms: _72  and  _73
REMARK   29  A    between atoms: _78  and  _80
REMARK   30  A    between atoms: _80  and  _81
REMARK   31  A    between atoms: _80  and  _83
REMARK   32  A    between atoms: _83  and  _84
REMARK   33  A    between atoms: _87  and  _89
REMARK   34  A    between atoms: _89  and  _90
REMARK   35  A    between atoms: _89  and  _92
REMARK   36  A    between atoms: _92  and  _93
REMARK   37  A    between atoms: _93  and  _94
REMARK   38  A    between atoms: _94  and  _95
REMARK   39  A    between atoms: _104  and  _106
REMARK   40  A    between atoms: _106  and  _107
REMARK   41  A    between atoms: _106  and  _109
REMARK   42  A    between atoms: _112  and  _114
REMARK   43  A    between atoms: _114  and  _115
REMARK   44  A    between atoms: _114  and  _117
REMARK   45  A    between atoms: _117  and  _118
REMARK   46  A    between atoms: _123  and  _124
REMARK   47  A    between atoms: _126  and  _128
REMARK   48  A    between atoms: _128  and  _129
REMARK   49  A    between atoms: _128  and  _131
REMARK   50  A    between atoms: _134  and  _136
REMARK   51  A    between atoms: _136  and  _137
REMARK   52  A    between atoms: _136  and  _139
REMARK   53  A    between atoms: _139  and  _140
REMARK   54  A    between atoms: _140  and  _141
REMARK   55  A    between atoms: _144  and  _146
REMARK   56  A    between atoms: _146  and  _147
REMARK   57  A    between atoms: _146  and  _149
REMARK   58  A    between atoms: _149  and  _150
REMARK   59  A    between atoms: _150  and  _151
REMARK   60  A    between atoms: _154  and  _156
REMARK   61  A    between atoms: _156  and  _157
REMARK   62  A    between atoms: _156  and  _159
REMARK   63  A    between atoms: _159  and  _160
REMARK   64  A    between atoms: _163  and  _165
REMARK   65  A    between atoms: _165  and  _166
REMARK   66  A    between atoms: _165  and  _168
REMARK   67  A    between atoms: _168  and  _169
REMARK   68  A    between atoms: _169  and  _170
REMARK   69  A    between atoms: _170  and  _171
REMARK   70  A    between atoms: _171  and  _172
REMARK   71  A    between atoms: _177  and  _178
REMARK   72  A    between atoms: _183  and  _185
REMARK   73  A    between atoms: _185  and  _186
REMARK   74  A    between atoms: _188  and  _190
REMARK   75  A    between atoms: _190  and  _191
REMARK   76  A    between atoms: _190  and  _193
REMARK   77  A    between atoms: _193  and  _194
REMARK   78  A    between atoms: _197  and  _199
REMARK   79  A    between atoms: _199  and  _200
REMARK   80  A    between atoms: _199  and  _202
REMARK   81  A    between atoms: _202  and  _203
REMARK   82  A    between atoms: _206  and  _208
REMARK   83  A    between atoms: _208  and  _209
REMARK   84  A    between atoms: _208  and  _211
REMARK   85  A    between atoms: _211  and  _212
REMARK   86  A    between atoms: _212  and  _213
REMARK   87  A    between atoms: _216  and  _218
REMARK   88  A    between atoms: _218  and  _219
REMARK   89  A    between atoms: _218  and  _221
REMARK   90  A    between atoms: _221  and  _222
REMARK   91  A    between atoms: _225  and  _227
REMARK   92  A    between atoms: _227  and  _228
REMARK   93  A    between atoms: _227  and  _230
REMARK   94  A    between atoms: _230  and  _231
REMARK   95  A    between atoms: _234  and  _236
REMARK   96  A    between atoms: _236  and  _237
REMARK   97  A    between atoms: _236  and  _239
REMARK   98  A    between atoms: _239  and  _240
REMARK   99  A    between atoms: _243  and  _245
REMARK  100  A    between atoms: _245  and  _246
REMARK  101  A    between atoms: _245  and  _248
REMARK  102  A    between atoms: _248  and  _249
REMARK  103  A    between atoms: _249  and  _250
REMARK  104  A    between atoms: _255  and  _257
REMARK  105  A    between atoms: _257  and  _258
REMARK  106  A    between atoms: _257  and  _260
REMARK  107  A    between atoms: _260  and  _261
REMARK  108  A    between atoms: _261  and  _262
REMARK  109  A    between atoms: _262  and  _263
REMARK  110  A    between atoms: _263  and  _264
REMARK  111  A    between atoms: _268  and  _270
REMARK  112  A    between atoms: _270  and  _271
REMARK  113  A    between atoms: _270  and  _273
REMARK  114  A    between atoms: _273  and  _274
REMARK  115  A    between atoms: _284  and  _286
REMARK  116  A    between atoms: _286  and  _287
REMARK  117  A    between atoms: _286  and  _289
REMARK  118  A    between atoms: _289  and  _290
REMARK  119  A    between atoms: _290  and  _291
REMARK  120  A    between atoms: _294  and  _296
REMARK  121  A    between atoms: _296  and  _297
REMARK  122  A    between atoms: _300  and  _302
REMARK  123  A    between atoms: _302  and  _303
REMARK  124  A    between atoms: _302  and  _305
REMARK  125  A    between atoms: _305  and  _306
REMARK  126  A    between atoms: _306  and  _307
REMARK  127  A    between atoms: _307  and  _308
REMARK  128  A    between atoms: _308  and  _309
REMARK  129  A    between atoms: _313  and  _315
REMARK  130  A    between atoms: _315  and  _316
REMARK  131  A    between atoms: _315  and  _318
REMARK  132  A    between atoms: _318  and  _319
REMARK  133  A    between atoms: _319  and  _320
REMARK  134  A    between atoms: _320  and  _321
REMARK  135  A    between atoms: _321  and  _322
REMARK  136  A    between atoms: _326  and  _328
REMARK  137  A    between atoms: _328  and  _329
REMARK  138  A    between atoms: _328  and  _331
REMARK  139  A    between atoms: _331  and  _332
REMARK  140  A    between atoms: _335  and  _337
REMARK  141  A    between atoms: _337  and  _338
REMARK  142  A    between atoms: _341  and  _343
REMARK  143  A    between atoms: _343  and  _344
REMARK  144  A    between atoms: _343  and  _346
REMARK  145  A    between atoms: _346  and  _347
REMARK  146  A    between atoms: _347  and  _348
REMARK  147  A    between atoms: _348  and  _349
REMARK  148  A    between atoms: _349  and  _350
REMARK  149  A    between atoms: _355  and  _356
REMARK  150  A    between atoms: _361  and  _363
REMARK  151  A    between atoms: _363  and  _364
REMARK  152  A    between atoms: _367  and  _369
REMARK  153  A    between atoms: _369  and  _370
REMARK  154  A    between atoms: _369  and  _372
REMARK  155  A    between atoms: _375  and  _377
REMARK  156  A    between atoms: _377  and  _378
REMARK  157  A    between atoms: _377  and  _380
REMARK  158  A    between atoms: _380  and  _381
REMARK  159  A    between atoms: _387  and  _389
REMARK  160  A    between atoms: _389  and  _390
REMARK  161  A    between atoms: _389  and  _392
REMARK  162  A    between atoms: _392  and  _393
REMARK  163  A    between atoms: _396  and  _398
REMARK  164  A    between atoms: _398  and  _399
REMARK  165  A    between atoms: _398  and  _401
REMARK  166  A    between atoms: _401  and  _402
REMARK  167  A    between atoms: _405  and  _407
REMARK  168  A    between atoms: _407  and  _408
REMARK  169  A    between atoms: _407  and  _410
REMARK  170  A    between atoms: _410  and  _411
REMARK  171  A    between atoms: _414  and  _416
REMARK  172  A    between atoms: _416  and  _417
REMARK  173  A    between atoms: _416  and  _419
REMARK  174  A    between atoms: _419  and  _420
REMARK  175  A    between atoms: _425  and  _427
REMARK  176  A    between atoms: _427  and  _428
REMARK  177  A    between atoms: _427  and  _430
REMARK  178  A    between atoms: _430  and  _431
REMARK  179  A    between atoms: _431  and  _432
REMARK  180  A    between atoms: _432  and  _433
REMARK  181  A    between atoms: _433  and  _434
REMARK  182  A    between atoms: _438  and  _440
REMARK  183  A    between atoms: _440  and  _441
REMARK  184  A    between atoms: _440  and  _443
REMARK  185  A    between atoms: _446  and  _448
REMARK  186  A    between atoms: _448  and  _449
REMARK  187  A    between atoms: _448  and  _451
REMARK  188  A    between atoms: _451  and  _452
REMARK  189  A    between atoms: _455  and  _457
REMARK  190  A    between atoms: _457  and  _458
REMARK  191  A    between atoms: _457  and  _460
REMARK  192  A    between atoms: _463  and  _465
REMARK  193  A    between atoms: _465  and  _466
REMARK  194  A    between atoms: _465  and  _468
REMARK  195  A    between atoms: _468  and  _469
REMARK  196  A    between atoms: _472  and  _474
REMARK  197  A    between atoms: _474  and  _475
REMARK  198  A    between atoms: _474  and  _477
REMARK  199  A    between atoms: _477  and  _478
REMARK  200  A    between atoms: _481  and  _483
REMARK  201  A    between atoms: _483  and  _484
REMARK  202  A    between atoms: _483  and  _486
REMARK  203  A    between atoms: _486  and  _487
REMARK  204  A    between atoms: _490  and  _492
REMARK  205  A    between atoms: _492  and  _493
REMARK  206  A    between atoms: _492  and  _495
REMARK  207  A    between atoms: _495  and  _496
REMARK  208  A    between atoms: _499  and  _501
REMARK  209  A    between atoms: _501  and  _502
REMARK  210  A    between atoms: _501  and  _504
REMARK  211  A    between atoms: _504  and  _505
REMARK  212  A    between atoms: _508  and  _510
REMARK  213  A    between atoms: _510  and  _511
REMARK  214  A    between atoms: _510  and  _513
REMARK  215  A    between atoms: _513  and  _514
REMARK  216  A    between atoms: _520  and  _522
REMARK  217  A    between atoms: _522  and  _523
REMARK  218  A    between atoms: _522  and  _525
REMARK  219  A    between atoms: _525  and  _526
REMARK  220  A    between atoms: _526  and  _558
REMARK  221  A    between atoms: _527  and  _529
REMARK  222  A    between atoms: _529  and  _530
REMARK  223  A    between atoms: _529  and  _532
REMARK  224  A    between atoms: _532  and  _533
REMARK  225  A    between atoms: _533  and  _534
REMARK  226  A    between atoms: _536  and  _538
REMARK  227  A    between atoms: _538  and  _539
REMARK  228  A    between atoms: _538  and  _541
REMARK  229  A    between atoms: _541  and  _542
REMARK  230  A    between atoms: _542  and  _543
REMARK  231  A    between atoms: _546  and  _548
REMARK  232  A    between atoms: _548  and  _549
REMARK  233  A    between atoms: _552  and  _554
REMARK  234  A    between atoms: _554  and  _555
REMARK  235  A    between atoms: _554  and  _557
REMARK  236  A    between atoms: _557  and  _558
REMARK  237  A    between atoms: _559  and  _561
REMARK  238  A    between atoms: _561  and  _562
REMARK  239  A    between atoms: _561  and  _564
REMARK  240  A    between atoms: _564  and  _565
REMARK  241  A    between atoms: _565  and  _566
REMARK  242  A    between atoms: _571  and  _573
REMARK  243  A    between atoms: _573  and  _574
REMARK  244  A    between atoms: _573  and  _576
REMARK  245  A    between atoms: _576  and  _577
REMARK                            x       y       z     vdW  Elec       q    Type
REMARK                         _______ _______ _______ _____ _____    ______ ____
ROOT
ATOM      1  CA  VAL A   3     -12.011  16.427  12.498  0.00  0.00    +0.149 C 
ENDROOT
BRANCH   1   4
ATOM      2  C   ALA A   2     -11.551  18.780  13.013  0.00  0.00    +0.241 C 
ATOM      3  O   ALA A   2     -11.220  18.519  14.173  0.00  0.00    -0.273 OA
ATOM      4  N   VAL A   3     -11.877  17.837  12.137  0.00  0.00    -0.297 N 
ATOM      5  H   VAL A   3     -12.045  18.114  11.149  0.00  0.00    +0.150 HD
BRANCH   2   6
ATOM      6  CA  ALA A   2     -11.613  20.237  12.529  0.00  0.00    +0.149 C 
ATOM      7  CB  ALA A   2     -12.530  21.047  13.431  0.00  0.00    +0.031 C 
BRANCH   6   9
ATOM      8  C   PRO A   1     -11.141  20.607  10.154  0.00  0.00    +0.239 C 
ATOM      9  N   ALA A   2     -12.023  20.411  11.133  0.00  0.00    -0.297 N 
ATOM     10  H   ALA A   2     -13.036  20.380  10.899  0.00  0.00    +0.150 HD
ATOM     11  O   PRO A   1      -9.948  20.541  10.332  0.00  0.00    -0.274 OA
BRANCH   8  13
ATOM     12  N   PRO A   1     -13.035  20.463   8.493  0.00  0.00    -0.210 NA
ATOM     13  CA  PRO A   1     -11.664  20.893   8.738  0.00  0.00    +0.149 C 
ATOM     14  CB  PRO A   1     -11.739  22.393   8.484  0.00  0.00    +0.028 C 
ATOM     15  CG  PRO A   1     -12.780  22.487   7.397  0.00  0.00    +0.021 C 
ATOM     16  CD  PRO A   1     -13.828  21.528   7.860  0.00  0.00    +0.089 C 
ENDBRANCH   8  13
ENDBRANCH   6   9
ENDBRANCH   2   6
ENDBRANCH   1   4
BRANCH   1  17
ATOM     17  C   VAL A   3     -11.126  15.608  11.562  0.00  0.00    +0.241 C 
ATOM     18  N   PHE A   4     -10.391  14.671  12.153  0.00  0.00    -0.298 N 
ATOM     19  H   PHE A   4     -10.486  14.551  13.182  0.00  0.00    +0.150 HD
ATOM     20  O   VAL A   3     -11.102  15.840  10.329  0.00  0.00    -0.273 OA
BRANCH  18  21
ATOM     21  CA  PHE A   4      -9.462  13.803  11.446  0.00  0.00    +0.141 C 
BRANCH  21  22
ATOM     22  C   PHE A   4      -9.802  12.384  11.874  0.00  0.00    +0.227 C 
ATOM     23  O   PHE A   4     -10.461  12.209  12.894  0.00  0.00    -0.286 OA
ENDBRANCH  21  22
BRANCH  21  24
ATOM     24  CB  PHE A   4      -8.002  14.189  11.778  0.00  0.00    +0.054 C 
BRANCH  24  25
ATOM     25  CG  PHE A   4      -7.606  15.502  11.224  0.00  0.00    -0.020 A 
ATOM     26  CD2 PHE A   4      -8.025  16.685  11.828  0.00  0.00    -0.004 A 
ATOM     27  CE2 PHE A   4      -7.727  17.918  11.254  0.00  0.00    -0.000 A 
ATOM     28  CZ  PHE A   4      -6.975  17.966  10.068  0.00  0.00    -0.000 A 
ATOM     29  CE1 PHE A   4      -6.551  16.789   9.461  0.00  0.00    -0.000 A 
ATOM     30  CD1 PHE A   4      -6.874  15.572  10.032  0.00  0.00    -0.004 A 
ENDBRANCH  24  25
ENDBRANCH  21  24
ENDBRANCH  18  21
ENDBRANCH   1  17
BRANCH   1  31
ATOM     31  CB  VAL A   3     -13.499  15.943  12.426  0.00  0.00    +0.027 C 
ATOM     32  CG2 VAL A   3     -14.394  16.762  13.345  0.00  0.00    +0.002 C 
ATOM     33  CG1 VAL A   3     -13.640  14.434  12.788  0.00  0.00    +0.002 C 
ENDBRANCH   1  31
TORSDOF 10
REMARK  Name = ../refined-set-2016/3uex/3uex_pocket.pdb
REMARK  245 active torsions:
REMARK  status: ('A' for Active; 'I' for Inactive)
REMARK    1  A    between atoms: _1  and  _3
REMARK    2  A    between atoms: _3  and  _4
REMARK    3  A    between atoms: _3  and  _6
REMARK    4  A    between atoms: _6  and  _7
REMARK    5  A    between atoms: _10  and  _12
REMARK    6  A    between atoms: _12  and  _13
REMARK    7  A    between atoms: _12  and  _15
REMARK    8  A    between atoms: _15  and  _16
REMARK    9  A    between atoms: _19  and  _21
REMARK   10  A    between atoms: _21  and  _22
REMARK   11  A    between atoms: _21  and  _24
REMARK   12  A    between atoms: _27  and  _29
REMARK   13  A    between atoms: _29  and  _30
REMARK   14  A    between atoms: _33  and  _35
REMARK   15  A    between atoms: _35  and  _36
REMARK   16  A    between atoms: _35  and  _38
REMARK   17  A    between atoms: _38  and  _39
REMARK   18  A    between atoms: _49  and  _51
REMARK   19  A    between atoms: _51  and  _52
REMARK   20  A    between atoms: _51  and  _54
REMARK   21  A    between atoms: _54  and  _55
REMARK   22  A    between atoms: _57  and  _59
REMARK   23  A    between atoms: _59  and  _60
REMARK   24  A    between atoms: _59  and  _62
REMARK   25  A    between atoms: _62  and  _63
REMARK   26  A    between atoms: _65  and  _67
REMARK   27  A    between atoms: _67  and  _68
REMARK   28  A    between atoms: _72  and  _73
REMARK   29  A    between atoms: _78  and  _80
REMARK   30  A    between atoms: _80  and  _81
REMARK   31  A    between atoms: _80  and  _83
REMARK   32  A    between atoms: _83  and  _84
REMARK   33  A    between atoms: _87  and  _89
REMARK   34  A    between atoms: _89  and  _90
REMARK   35  A    between atoms: _89  and  _92
REMARK   36  A    between atoms: _92  and  _93
REMARK   37  A    between atoms: _93  and  _94
REMARK   38  A    between atoms: _94  and  _95
REMARK   39  A    between atoms: _104  and  _106
REMARK   40  A    between atoms: _106  and  _107
REMARK   41  A    between atoms: _106  and  _109
REMARK   42  A    between atoms: _112  and  _114
REMARK   43  A    between atoms: _114  and  _115
REMARK   44  A    between atoms: _114  and  _117
REMARK   45  A    between atoms: _117  and  _118
REMARK   46  A    between atoms: _123  and  _124
REMARK   47  A    between atoms: _126  and  _128
REMARK   48  A    between atoms: _128  and  _129
REMARK   49  A    between atoms: _128  and  _131
REMARK   50  A    between atoms: _134  and  _136
REMARK   51  A    between atoms: _136  and  _137
REMARK   52  A    between atoms: _136  and  _139
REMARK   53  A    between atoms: _139  and  _140
REMARK   54  A    between atoms: _140  and  _141
REMARK   55  A    between atoms: _144  and  _146
REMARK   56  A    between atoms: _146  and  _147
REMARK   57  A    between atoms: _146  and  _149
REMARK   58  A    between atoms: _149  and  _150
REMARK   59  A    between atoms: _150  and  _151
REMARK   60  A    between atoms: _154  and  _156
REMARK   61  A    between atoms: _156  and  _157
REMARK   62  A    between atoms: _156  and  _159
REMARK   63  A    between atoms: _159  and  _160
REMARK   64  A    between atoms: _163  and  _165
REMARK   65  A    between atoms: _165  and  _166
REMARK   66  A    between atoms: _165  and  _168
REMARK   67  A    between atoms: _168  and  _169
REMARK   68  A    between atoms: _169  and  _170
REMARK   69  A    between atoms: _170  and  _171
REMARK   70  A    between atoms: _171  and  _172
REMARK   71  A    between atoms: _177  and  _178
REMARK   72  A    between atoms: _183  and  _185
REMARK   73  A    between atoms: _185  and  _186
REMARK   74  A    between atoms: _188  and  _190
REMARK   75  A    between atoms: _190  and  _191
REMARK   76  A    between atoms: _190  and  _193
REMARK   77  A    between atoms: _193  and  _194
REMARK   78  A    between atoms: _197  and  _199
REMARK   79  A    between atoms: _199  and  _200
REMARK   80  A    between atoms: _199  and  _202
REMARK   81  A    between atoms: _202  and  _203
REMARK   82  A    between atoms: _206  and  _208
REMARK   83  A    between atoms: _208  and  _209
REMARK   84  A    between atoms: _208  and  _211
REMARK   85  A    between atoms: _211  and  _212
REMARK   86  A    between atoms: _212  and  _213
REMARK   87  A    between atoms: _216  and  _218
REMARK   88  A    between atoms: _218  and  _219
REMARK   89  A    between atoms: _218  and  _221
REMARK   90  A    between atoms: _221  and  _222
REMARK   91  A    between atoms: _225  and  _227
REMARK   92  A    between atoms: _227  and  _228
REMARK   93  A    between atoms: _227  and  _230
REMARK   94  A    between atoms: _230  and  _231
REMARK   95  A    between atoms: _234  and  _236
REMARK   96  A    between atoms: _236  and  _237
REMARK   97  A    between atoms: _236  and  _239
REMARK   98  A    between atoms: _239  and  _240
REMARK   99  A    between atoms: _243  and  _245
REMARK  100  A    between atoms: _245  and  _246
REMARK  101  A    between atoms: _245  and  _248
REMARK  102  A    between atoms: _248  and  _249
REMARK  103  A    between atoms: _249  and  _250
REMARK  104  A    between atoms: _255  and  _257
REMARK  105  A    between atoms: _257  and  _258
REMARK  106  A    between atoms: _257  and  _260
REMARK  107  A    between atoms: _260  and  _261
REMARK  108  A    between atoms: _261  and  _262
REMARK  109  A    between atoms: _262  and  _263
REMARK  110  A    between atoms: _263  and  _264
REMARK  111  A    between atoms: _268  and  _270
REMARK  112  A    between atoms: _270  and  _271
REMARK  113  A    between atoms: _270  and  _273
REMARK  114  A    between atoms: _273  and  _274
REMARK  115  A    between atoms: _284  and  _286
REMARK  116  A    between atoms: _286  and  _287
REMARK  117  A    between atoms: _286  and  _289
REMARK  118  A    between atoms: _289  and  _290
REMARK  119  A    between atoms: _290  and  _291
REMARK  120  A    between atoms: _294  and  _296
REMARK  121  A    between atoms: _296  and  _297
REMARK  122  A    between atoms: _300  and  _302
REMARK  123  A    between atoms: _302  and  _303
REMARK  124  A    between atoms: _302  and  _305
REMARK  125  A    between atoms: _305  and  _306
REMARK  126  A    between atoms: _306  and  _307
REMARK  127  A    between atoms: _307  and  _308
REMARK  128  A    between atoms: _308  and  _309
REMARK  129  A    between atoms: _313  and  _315
REMARK  130  A    between atoms: _315  and  _316
REMARK  131  A    between atoms: _315  and  _318
REMARK  132  A    between atoms: _318  and  _319
REMARK  133  A    between atoms: _319  and  _320
REMARK  134  A    between atoms: _320  and  _321
REMARK  135  A    between atoms: _321  and  _322
REMARK  136  A    between atoms: _326  and  _328
REMARK  137  A    between atoms: _328  and  _329
REMARK  138  A    between atoms: _328  and  _331
REMARK  139  A    between atoms: _331  and  _332
REMARK  140  A    between atoms: _335  and  _337
REMARK  141  A    between atoms: _337  and  _338
REMARK  142  A    between atoms: _341  and  _343
REMARK  143  A    between atoms: _343  and  _344
REMARK  144  A    between atoms: _343  and  _346
REMARK  145  A    between atoms: _346  and  _347
REMARK  146  A    between atoms: _347  and  _348
REMARK  147  A    between atoms: _348  and  _349
REMARK  148  A    between atoms: _349  and  _350
REMARK  149  A    between atoms: _355  and  _356
REMARK  150  A    between atoms: _361  and  _363
REMARK  151  A    between atoms: _363  and  _364
REMARK  152  A    between atoms: _367  and  _369
REMARK  153  A    between atoms: _369  and  _370
REMARK  154  A    between atoms: _369  and  _372
REMARK  155  A    between atoms: _375  and  _377
REMARK  156  A    between atoms: _377  and  _378
REMARK  157  A    between atoms: _377  and  _380
REMARK  158  A    between atoms: _380  and  _381
REMARK  159  A    between atoms: _387  and  _389
REMARK  160  A    between atoms: _389  and  _390
REMARK  161  A    between atoms: _389  and  _392
REMARK  162  A    between atoms: _392  and  _393
REMARK  163  A    between atoms: _396  and  _398
REMARK  164  A    between atoms: _398  and  _399
REMARK  165  A    between atoms: _398  and  _401
REMARK  166  A    between atoms: _401  and  _402
REMARK  167  A    between atoms: _405  and  _407
REMARK  168  A    between atoms: _407  and  _408
REMARK  169  A    between atoms: _407  and  _410
REMARK  170  A    between atoms: _410  and  _411
REMARK  171  A    between atoms: _414  and  _416
REMARK  172  A    between atoms: _416  and  _417
REMARK  173  A    between atoms: _416  and  _419
REMARK  174  A    between atoms: _419  and  _420
REMARK  175  A    between atoms: _425  and  _427
REMARK  176  A    between atoms: _427  and  _428
REMARK  177  A    between atoms: _427  and  _430
REMARK  178  A    between atoms: _430  and  _431
REMARK  179  A    between atoms: _431  and  _432
REMARK  180  A    between atoms: _432  and  _433
REMARK  181  A    between atoms: _433  and  _434
REMARK  182  A    between atoms: _438  and  _440
REMARK  183  A    between atoms: _440  and  _441
REMARK  184  A    between atoms: _440  and  _443
REMARK  185  A    between atoms: _446  and  _448
REMARK  186  A    between atoms: _448  and  _449
REMARK  187  A    between atoms: _448  and  _451
REMARK  188  A    between atoms: _451  and  _452
REMARK  189  A    between atoms: _455  and  _457
REMARK  190  A    between atoms: _457  and  _458
REMARK  191  A    between atoms: _457  and  _460
REMARK  192  A    between atoms: _463  and  _465
REMARK  193  A    between atoms: _465  and  _466
REMARK  194  A    between atoms: _465  and  _468
REMARK  195  A    between atoms: _468  and  _469
REMARK  196  A    between atoms: _472  and  _474
REMARK  197  A    between atoms: _474  and  _475
REMARK  198  A    between atoms: _474  and  _477
REMARK  199  A    between atoms: _477  and  _478
REMARK  200  A    between atoms: _481  and  _483
REMARK  201  A    between atoms: _483  and  _484
REMARK  202  A    between atoms: _483  and  _486
REMARK  203  A    between atoms: _486  and  _487
REMARK  204  A    between atoms: _490  and  _492
REMARK  205  A    between atoms: _492  and  _493
REMARK  206  A    between atoms: _492  and  _495
REMARK  207  A    between atoms: _495  and  _496
REMARK  208  A    between atoms: _499  and  _501
REMARK  209  A    between atoms: _501  and  _502
REMARK  210  A    between atoms: _501  and  _504
REMARK  211  A    between atoms: _504  and  _505
REMARK  212  A    between atoms: _508  and  _510
REMARK  213  A    between atoms: _510  and  _511
REMARK  214  A    between atoms: _510  and  _513
REMARK  215  A    between atoms: _513  and  _514
REMARK  216  A    between atoms: _520  and  _522
REMARK  217  A    between atoms: _522  and  _523
REMARK  218  A    between atoms: _522  and  _525
REMARK  219  A    between atoms: _525  and  _526
REMARK  220  A    between atoms: _526  and  _558
REMARK  221  A    between atoms: _527  and  _529
REMARK  222  A    between atoms: _529  and  _530
REMARK  223  A    between atoms: _529  and  _532
REMARK  224  A    between atoms: _532  and  _533
REMARK  225  A    between atoms: _533  and  _534
REMARK  226  A    between atoms: _536  and  _538
REMARK  227  A    between atoms: _538  and  _539
REMARK  228  A    between atoms: _538  and  _541
REMARK  229  A    between atoms: _541  and  _542
REMARK  230  A    between atoms: _542  and  _543
REMARK  231  A    between atoms: _546  and  _548
REMARK  232  A    between atoms: _548  and  _549
REMARK  233  A    between atoms: _552  and  _554
REMARK  234  A    between atoms: _554  and  _555
REMARK  235  A    between atoms: _554  and  _557
REMARK  236  A    between atoms: _557  and  _558
REMARK  237  A    between atoms: _559  and  _561
REMARK  238  A    between atoms: _561  and  _562
REMARK  239  A    between atoms: _561  and  _564
REMARK  240  A    between atoms: _564  and  _565
REMARK  241  A    between atoms: _565  and  _566
REMARK  242  A    between atoms: _571  and  _573
REMARK  243  A    between atoms: _573  and  _574
REMARK  244  A    between atoms: _573  and  _576
REMARK  245  A    between atoms: _576  and  _577
REMARK                            x       y       z     vdW  Elec       q    Type
REMARK                         _______ _______ _______ _____ _____    ______ ____
ROOT
ATOM      1  C   ILE A   1      -6.687   6.374  12.089  0.00  0.00    +0.238 C 
ATOM      2  O   ILE A   1      -7.731   5.734  12.004  0.00  0.00    -0.274 OA
ATOM      3  N   ASP A   2      -5.523   5.879  11.672  0.00  0.00    -0.298 N 
ATOM      4  H   ASP A   2      -4.697   6.506  11.595  0.00  0.00    +0.150 HD
ENDROOT
BRANCH   1   5
ATOM      5  CA  ILE A   1      -6.681   7.813  12.653  0.00  0.00    +0.145 C 
BRANCH   5   6
ATOM      6  N   ILE A   1      -7.965   8.493  12.490  0.00  0.00    -0.238 NA
ATOM      7  H   ILE A   1      -8.727   8.320  13.177  0.00  0.00    +0.142 HD
ENDBRANCH   5   6
BRANCH   5   8
ATOM      8  CB  ILE A   1      -6.194   7.903  14.148  0.00  0.00    +0.025 C 
ATOM      9  CG2 ILE A   1      -5.444   6.669  14.581  0.00  0.00    +0.002 C 
BRANCH   8  10
ATOM     10  CG1 ILE A   1      -5.306   9.134  14.327  0.00  0.00    +0.002 C 
ATOM     11  CD1 ILE A   1      -5.021   9.473  15.763  0.00  0.00    +0.000 C 
ENDBRANCH   8  10
ENDBRANCH   5   8
ENDBRANCH   1   5
BRANCH   3  12
ATOM     12  CA  ASP A   2      -5.392   4.454  11.319  0.00  0.00    +0.148 C 
BRANCH  12  13
ATOM     13  C   ASP A   2      -5.376   3.553  12.556  0.00  0.00    +0.227 C 
ATOM     14  O   ASP A   2      -4.693   3.862  13.539  0.00  0.00    -0.286 OA
ENDBRANCH  12  13
BRANCH  12  15
ATOM     15  CB  ASP A   2      -4.143   4.187  10.476  0.00  0.00    +0.142 C 
BRANCH  15  16
ATOM     16  CG  ASP A   2      -4.473   3.603   9.105  0.00  0.00    +0.367 C 
ATOM     17  OD2 ASP A   2      -4.075   2.440   8.844  0.00  0.00    -0.246 OA
ATOM     18  OD1 ASP A   2      -5.110   4.302   8.284  0.00  0.00    -0.246 OA
ENDBRANCH  15  16
ENDBRANCH  12  15
ENDBRANCH   3  12
TORSDOF 8
REMARK  Name = ../refined-set-2016/3uex/3uex_pocket.pdb
REMARK  245 active torsions:
REMARK  status: ('A' for Active; 'I' for Inactive)
REMARK    1  A    between atoms: _1  and  _3
REMARK    2  A    between atoms: _3  and  _4
REMARK    3  A    between atoms: _3  and  _6
REMARK    4  A    between atoms: _6  and  _7
REMARK    5  A    between atoms: _10  and  _12
REMARK    6  A    between atoms: _12  and  _13
REMARK    7  A    between atoms: _12  and  _15
REMARK    8  A    between atoms: _15  and  _16
REMARK    9  A    between atoms: _19  and  _21
REMARK   10  A    between atoms: _21  and  _22
REMARK   11  A    between atoms: _21  and  _24
REMARK   12  A    between atoms: _27  and  _29
REMARK   13  A    between atoms: _29  and  _30
REMARK   14  A    between atoms: _33  and  _35
REMARK   15  A    between atoms: _35  and  _36
REMARK   16  A    between atoms: _35  and  _38
REMARK   17  A    between atoms: _38  and  _39
REMARK   18  A    between atoms: _49  and  _51
REMARK   19  A    between atoms: _51  and  _52
REMARK   20  A    between atoms: _51  and  _54
REMARK   21  A    between atoms: _54  and  _55
REMARK   22  A    between atoms: _57  and  _59
REMARK   23  A    between atoms: _59  and  _60
REMARK   24  A    between atoms: _59  and  _62
REMARK   25  A    between atoms: _62  and  _63
REMARK   26  A    between atoms: _65  and  _67
REMARK   27  A    between atoms: _67  and  _68
REMARK   28  A    between atoms: _72  and  _73
REMARK   29  A    between atoms: _78  and  _80
REMARK   30  A    between atoms: _80  and  _81
REMARK   31  A    between atoms: _80  and  _83
REMARK   32  A    between atoms: _83  and  _84
REMARK   33  A    between atoms: _87  and  _89
REMARK   34  A    between atoms: _89  and  _90
REMARK   35  A    between atoms: _89  and  _92
REMARK   36  A    between atoms: _92  and  _93
REMARK   37  A    between atoms: _93  and  _94
REMARK   38  A    between atoms: _94  and  _95
REMARK   39  A    between atoms: _104  and  _106
REMARK   40  A    between atoms: _106  and  _107
REMARK   41  A    between atoms: _106  and  _109
REMARK   42  A    between atoms: _112  and  _114
REMARK   43  A    between atoms: _114  and  _115
REMARK   44  A    between atoms: _114  and  _117
REMARK   45  A    between atoms: _117  and  _118
REMARK   46  A    between atoms: _123  and  _124
REMARK   47  A    between atoms: _126  and  _128
REMARK   48  A    between atoms: _128  and  _129
REMARK   49  A    between atoms: _128  and  _131
REMARK   50  A    between atoms: _134  and  _136
REMARK   51  A    between atoms: _136  and  _137
REMARK   52  A    between atoms: _136  and  _139
REMARK   53  A    between atoms: _139  and  _140
REMARK   54  A    between atoms: _140  and  _141
REMARK   55  A    between atoms: _144  and  _146
REMARK   56  A    between atoms: _146  and  _147
REMARK   57  A    between atoms: _146  and  _149
REMARK   58  A    between atoms: _149  and  _150
REMARK   59  A    between atoms: _150  and  _151
REMARK   60  A    between atoms: _154  and  _156
REMARK   61  A    between atoms: _156  and  _157
REMARK   62  A    between atoms: _156  and  _159
REMARK   63  A    between atoms: _159  and  _160
REMARK   64  A    between atoms: _163  and  _165
REMARK   65  A    between atoms: _165  and  _166
REMARK   66  A    between atoms: _165  and  _168
REMARK   67  A    between atoms: _168  and  _169
REMARK   68  A    between atoms: _169  and  _170
REMARK   69  A    between atoms: _170  and  _171
REMARK   70  A    between atoms: _171  and  _172
REMARK   71  A    between atoms: _177  and  _178
REMARK   72  A    between atoms: _183  and  _185
REMARK   73  A    between atoms: _185  and  _186
REMARK   74  A    between atoms: _188  and  _190
REMARK   75  A    between atoms: _190  and  _191
REMARK   76  A    between atoms: _190  and  _193
REMARK   77  A    between atoms: _193  and  _194
REMARK   78  A    between atoms: _197  and  _199
REMARK   79  A    between atoms: _199  and  _200
REMARK   80  A    between atoms: _199  and  _202
REMARK   81  A    between atoms: _202  and  _203
REMARK   82  A    between atoms: _206  and  _208
REMARK   83  A    between atoms: _208  and  _209
REMARK   84  A    between atoms: _208  and  _211
REMARK   85  A    between atoms: _211  and  _212
REMARK   86  A    between atoms: _212  and  _213
REMARK   87  A    between atoms: _216  and  _218
REMARK   88  A    between atoms: _218  and  _219
REMARK   89  A    between atoms: _218  and  _221
REMARK   90  A    between atoms: _221  and  _222
REMARK   91  A    between atoms: _225  and  _227
REMARK   92  A    between atoms: _227  and  _228
REMARK   93  A    between atoms: _227  and  _230
REMARK   94  A    between atoms: _230  and  _231
REMARK   95  A    between atoms: _234  and  _236
REMARK   96  A    between atoms: _236  and  _237
REMARK   97  A    between atoms: _236  and  _239
REMARK   98  A    between atoms: _239  and  _240
REMARK   99  A    between atoms: _243  and  _245
REMARK  100  A    between atoms: _245  and  _246
REMARK  101  A    between atoms: _245  and  _248
REMARK  102  A    between atoms: _248  and  _249
REMARK  103  A    between atoms: _249  and  _250
REMARK  104  A    between atoms: _255  and  _257
REMARK  105  A    between atoms: _257  and  _258
REMARK  106  A    between atoms: _257  and  _260
REMARK  107  A    between atoms: _260  and  _261
REMARK  108  A    between atoms: _261  and  _262
REMARK  109  A    between atoms: _262  and  _263
REMARK  110  A    between atoms: _263  and  _264
REMARK  111  A    between atoms: _268  and  _270
REMARK  112  A    between atoms: _270  and  _271
REMARK  113  A    between atoms: _270  and  _273
REMARK  114  A    between atoms: _273  and  _274
REMARK  115  A    between atoms: _284  and  _286
REMARK  116  A    between atoms: _286  and  _287
REMARK  117  A    between atoms: _286  and  _289
REMARK  118  A    between atoms: _289  and  _290
REMARK  119  A    between atoms: _290  and  _291
REMARK  120  A    between atoms: _294  and  _296
REMARK  121  A    between atoms: _296  and  _297
REMARK  122  A    between atoms: _300  and  _302
REMARK  123  A    between atoms: _302  and  _303
REMARK  124  A    between atoms: _302  and  _305
REMARK  125  A    between atoms: _305  and  _306
REMARK  126  A    between atoms: _306  and  _307
REMARK  127  A    between atoms: _307  and  _308
REMARK  128  A    between atoms: _308  and  _309
REMARK  129  A    between atoms: _313  and  _315
REMARK  130  A    between atoms: _315  and  _316
REMARK  131  A    between atoms: _315  and  _318
REMARK  132  A    between atoms: _318  and  _319
REMARK  133  A    between atoms: _319  and  _320
REMARK  134  A    between atoms: _320  and  _321
REMARK  135  A    between atoms: _321  and  _322
REMARK  136  A    between atoms: _326  and  _328
REMARK  137  A    between atoms: _328  and  _329
REMARK  138  A    between atoms: _328  and  _331
REMARK  139  A    between atoms: _331  and  _332
REMARK  140  A    between atoms: _335  and  _337
REMARK  141  A    between atoms: _337  and  _338
REMARK  142  A    between atoms: _341  and  _343
REMARK  143  A    between atoms: _343  and  _344
REMARK  144  A    between atoms: _343  and  _346
REMARK  145  A    between atoms: _346  and  _347
REMARK  146  A    between atoms: _347  and  _348
REMARK  147  A    between atoms: _348  and  _349
REMARK  148  A    between atoms: _349  and  _350
REMARK  149  A    between atoms: _355  and  _356
REMARK  150  A    between atoms: _361  and  _363
REMARK  151  A    between atoms: _363  and  _364
REMARK  152  A    between atoms: _367  and  _369
REMARK  153  A    between atoms: _369  and  _370
REMARK  154  A    between atoms: _369  and  _372
REMARK  155  A    between atoms: _375  and  _377
REMARK  156  A    between atoms: _377  and  _378
REMARK  157  A    between atoms: _377  and  _380
REMARK  158  A    between atoms: _380  and  _381
REMARK  159  A    between atoms: _387  and  _389
REMARK  160  A    between atoms: _389  and  _390
REMARK  161  A    between atoms: _389  and  _392
REMARK  162  A    between atoms: _392  and  _393
REMARK  163  A    between atoms: _396  and  _398
REMARK  164  A    between atoms: _398  and  _399
REMARK  165  A    between atoms: _398  and  _401
REMARK  166  A    between atoms: _401  and  _402
REMARK  167  A    between atoms: _405  and  _407
REMARK  168  A    between atoms: _407  and  _408
REMARK  169  A    between atoms: _407  and  _410
REMARK  170  A    between atoms: _410  and  _411
REMARK  171  A    between atoms: _414  and  _416
REMARK  172  A    between atoms: _416  and  _417
REMARK  173  A    between atoms: _416  and  _419
REMARK  174  A    between atoms: _419  and  _420
REMARK  175  A    between atoms: _425  and  _427
REMARK  176  A    between atoms: _427  and  _428
REMARK  177  A    between atoms: _427  and  _430
REMARK  178  A    between atoms: _430  and  _431
REMARK  179  A    between atoms: _431  and  _432
REMARK  180  A    between atoms: _432  and  _433
REMARK  181  A    between atoms: _433  and  _434
REMARK  182  A    between atoms: _438  and  _440
REMARK  183  A    between atoms: _440  and  _441
REMARK  184  A    between atoms: _440  and  _443
REMARK  185  A    between atoms: _446  and  _448
REMARK  186  A    between atoms: _448  and  _449
REMARK  187  A    between atoms: _448  and  _451
REMARK  188  A    between atoms: _451  and  _452
REMARK  189  A    between atoms: _455  and  _457
REMARK  190  A    between atoms: _457  and  _458
REMARK  191  A    between atoms: _457  and  _460
REMARK  192  A    between atoms: _463  and  _465
REMARK  193  A    between atoms: _465  and  _466
REMARK  194  A    between atoms: _465  and  _468
REMARK  195  A    between atoms: _468  and  _469
REMARK  196  A    between atoms: _472  and  _474
REMARK  197  A    between atoms: _474  and  _475
REMARK  198  A    between atoms: _474  and  _477
REMARK  199  A    between atoms: _477  and  _478
REMARK  200  A    between atoms: _481  and  _483
REMARK  201  A    between atoms: _483  and  _484
REMARK  202  A    between atoms: _483  and  _486
REMARK  203  A    between atoms: _486  and  _487
REMARK  204  A    between atoms: _490  and  _492
REMARK  205  A    between atoms: _492  and  _493
REMARK  206  A    between atoms: _492  and  _495
REMARK  207  A    between atoms: _495  and  _496
REMARK  208  A    between atoms: _499  and  _501
REMARK  209  A    between atoms: _501  and  _502
REMARK  210  A    between atoms: _501  and  _504
REMARK  211  A    between atoms: _504  and  _505
REMARK  212  A    between atoms: _508  and  _510
REMARK  213  A    between atoms: _510  and  _511
REMARK  214  A    between atoms: _510  and  _513
REMARK  215  A    between atoms: _513  and  _514
REMARK  216  A    between atoms: _520  and  _522
REMARK  217  A    between atoms: _522  and  _523
REMARK  218  A    between atoms: _522  and  _525
REMARK  219  A    between atoms: _525  and  _526
REMARK  220  A    between atoms: _526  and  _558
REMARK  221  A    between atoms: _527  and  _529
REMARK  222  A    between atoms: _529  and  _530
REMARK  223  A    between atoms: _529  and  _532
REMARK  224  A    between atoms: _532  and  _533
REMARK  225  A    between atoms: _533  and  _534
REMARK  226  A    between atoms: _536  and  _538
REMARK  227  A    between atoms: _538  and  _539
REMARK  228  A    between atoms: _538  and  _541
REMARK  229  A    between atoms: _541  and  _542
REMARK  230  A    between atoms: _542  and  _543
REMARK  231  A    between atoms: _546  and  _548
REMARK  232  A    between atoms: _548  and  _549
REMARK  233  A    between atoms: _552  and  _554
REMARK  234  A    between atoms: _554  and  _555
REMARK  235  A    between atoms: _554  and  _557
REMARK  236  A    between atoms: _557  and  _558
REMARK  237  A    between atoms: _559  and  _561
REMARK  238  A    between atoms: _561  and  _562
REMARK  239  A    between atoms: _561  and  _564
REMARK  240  A    between atoms: _564  and  _565
REMARK  241  A    between atoms: _565  and  _566
REMARK  242  A    between atoms: _571  and  _573
REMARK  243  A    between atoms: _573  and  _574
REMARK  244  A    between atoms: _573  and  _576
REMARK  245  A    between atoms: _576  and  _577
REMARK                            x       y       z     vdW  Elec       q    Type
REMARK                         _______ _______ _______ _____ _____    ______ ____
ROOT
ATOM      1  CA  LEU A   1      -8.805  -0.055  14.052  0.00  0.00    +0.133 C 
ENDROOT
BRANCH   1   2
ATOM      2  N   LEU A   1      -7.884   0.717  13.254  0.00  0.00    -0.239 NA
ATOM      3  H   LEU A   1      -6.867   0.666  13.464  0.00  0.00    +0.142 HD
ENDBRANCH   1   2
BRANCH   1   4
ATOM      4  C   LEU A   1      -9.903   0.846  14.559  0.00  0.00    +0.224 C 
ATOM      5  O   LEU A   1      -9.703   1.655  15.477  0.00  0.00    -0.287 OA
ENDBRANCH   1   4
BRANCH   1   6
ATOM      6  CB  LEU A   1      -8.097  -0.795  15.189  0.00  0.00    +0.025 C 
BRANCH   6   7
ATOM      7  CG  LEU A   1      -8.149  -2.331  15.140  0.00  0.00    +0.002 C 
ATOM      8  CD2 LEU A   1      -6.935  -2.947  15.828  0.00  0.00    +0.000 C 
ATOM      9  CD1 LEU A   1      -8.320  -2.870  13.716  0.00  0.00    +0.000 C 
ENDBRANCH   6   7
ENDBRANCH   1   6
TORSDOF 4
REMARK  Name = ../refined-set-2016/3uex/3uex_pocket.pdb
REMARK  245 active torsions:
REMARK  status: ('A' for Active; 'I' for Inactive)
REMARK    1  A    between atoms: _1  and  _3
REMARK    2  A    between atoms: _3  and  _4
REMARK    3  A    between atoms: _3  and  _6
REMARK    4  A    between atoms: _6  and  _7
REMARK    5  A    between atoms: _10  and  _12
REMARK    6  A    between atoms: _12  and  _13
REMARK    7  A    between atoms: _12  and  _15
REMARK    8  A    between atoms: _15  and  _16
REMARK    9  A    between atoms: _19  and  _21
REMARK   10  A    between atoms: _21  and  _22
REMARK   11  A    between atoms: _21  and  _24
REMARK   12  A    between atoms: _27  and  _29
REMARK   13  A    between atoms: _29  and  _30
REMARK   14  A    between atoms: _33  and  _35
REMARK   15  A    between atoms: _35  and  _36
REMARK   16  A    between atoms: _35  and  _38
REMARK   17  A    between atoms: _38  and  _39
REMARK   18  A    between atoms: _49  and  _51
REMARK   19  A    between atoms: _51  and  _52
REMARK   20  A    between atoms: _51  and  _54
REMARK   21  A    between atoms: _54  and  _55
REMARK   22  A    between atoms: _57  and  _59
REMARK   23  A    between atoms: _59  and  _60
REMARK   24  A    between atoms: _59  and  _62
REMARK   25  A    between atoms: _62  and  _63
REMARK   26  A    between atoms: _65  and  _67
REMARK   27  A    between atoms: _67  and  _68
REMARK   28  A    between atoms: _72  and  _73
REMARK   29  A    between atoms: _78  and  _80
REMARK   30  A    between atoms: _80  and  _81
REMARK   31  A    between atoms: _80  and  _83
REMARK   32  A    between atoms: _83  and  _84
REMARK   33  A    between atoms: _87  and  _89
REMARK   34  A    between atoms: _89  and  _90
REMARK   35  A    between atoms: _89  and  _92
REMARK   36  A    between atoms: _92  and  _93
REMARK   37  A    between atoms: _93  and  _94
REMARK   38  A    between atoms: _94  and  _95
REMARK   39  A    between atoms: _104  and  _106
REMARK   40  A    between atoms: _106  and  _107
REMARK   41  A    between atoms: _106  and  _109
REMARK   42  A    between atoms: _112  and  _114
REMARK   43  A    between atoms: _114  and  _115
REMARK   44  A    between atoms: _114  and  _117
REMARK   45  A    between atoms: _117  and  _118
REMARK   46  A    between atoms: _123  and  _124
REMARK   47  A    between atoms: _126  and  _128
REMARK   48  A    between atoms: _128  and  _129
REMARK   49  A    between atoms: _128  and  _131
REMARK   50  A    between atoms: _134  and  _136
REMARK   51  A    between atoms: _136  and  _137
REMARK   52  A    between atoms: _136  and  _139
REMARK   53  A    between atoms: _139  and  _140
REMARK   54  A    between atoms: _140  and  _141
REMARK   55  A    between atoms: _144  and  _146
REMARK   56  A    between atoms: _146  and  _147
REMARK   57  A    between atoms: _146  and  _149
REMARK   58  A    between atoms: _149  and  _150
REMARK   59  A    between atoms: _150  and  _151
REMARK   60  A    between atoms: _154  and  _156
REMARK   61  A    between atoms: _156  and  _157
REMARK   62  A    between atoms: _156  and  _159
REMARK   63  A    between atoms: _159  and  _160
REMARK   64  A    between atoms: _163  and  _165
REMARK   65  A    between atoms: _165  and  _166
REMARK   66  A    between atoms: _165  and  _168
REMARK   67  A    between atoms: _168  and  _169
REMARK   68  A    between atoms: _169  and  _170
REMARK   69  A    between atoms: _170  and  _171
REMARK   70  A    between atoms: _171  and  _172
REMARK   71  A    between atoms: _177  and  _178
REMARK   72  A    between atoms: _183  and  _185
REMARK   73  A    between atoms: _185  and  _186
REMARK   74  A    between atoms: _188  and  _190
REMARK   75  A    between atoms: _190  and  _191
REMARK   76  A    between atoms: _190  and  _193
REMARK   77  A    between atoms: _193  and  _194
REMARK   78  A    between atoms: _197  and  _199
REMARK   79  A    between atoms: _199  and  _200
REMARK   80  A    between atoms: _199  and  _202
REMARK   81  A    between atoms: _202  and  _203
REMARK   82  A    between atoms: _206  and  _208
REMARK   83  A    between atoms: _208  and  _209
REMARK   84  A    between atoms: _208  and  _211
REMARK   85  A    between atoms: _211  and  _212
REMARK   86  A    between atoms: _212  and  _213
REMARK   87  A    between atoms: _216  and  _218
REMARK   88  A    between atoms: _218  and  _219
REMARK   89  A    between atoms: _218  and  _221
REMARK   90  A    between atoms: _221  and  _222
REMARK   91  A    between atoms: _225  and  _227
REMARK   92  A    between atoms: _227  and  _228
REMARK   93  A    between atoms: _227  and  _230
REMARK   94  A    between atoms: _230  and  _231
REMARK   95  A    between atoms: _234  and  _236
REMARK   96  A    between atoms: _236  and  _237
REMARK   97  A    between atoms: _236  and  _239
REMARK   98  A    between atoms: _239  and  _240
REMARK   99  A    between atoms: _243  and  _245
REMARK  100  A    between atoms: _245  and  _246
REMARK  101  A    between atoms: _245  and  _248
REMARK  102  A    between atoms: _248  and  _249
REMARK  103  A    between atoms: _249  and  _250
REMARK  104  A    between atoms: _255  and  _257
REMARK  105  A    between atoms: _257  and  _258
REMARK  106  A    between atoms: _257  and  _260
REMARK  107  A    between atoms: _260  and  _261
REMARK  108  A    between atoms: _261  and  _262
REMARK  109  A    between atoms: _262  and  _263
REMARK  110  A    between atoms: _263  and  _264
REMARK  111  A    between atoms: _268  and  _270
REMARK  112  A    between atoms: _270  and  _271
REMARK  113  A    between atoms: _270  and  _273
REMARK  114  A    between atoms: _273  and  _274
REMARK  115  A    between atoms: _284  and  _286
REMARK  116  A    between atoms: _286  and  _287
REMARK  117  A    between atoms: _286  and  _289
REMARK  118  A    between atoms: _289  and  _290
REMARK  119  A    between atoms: _290  and  _291
REMARK  120  A    between atoms: _294  and  _296
REMARK  121  A    between atoms: _296  and  _297
REMARK  122  A    between atoms: _300  and  _302
REMARK  123  A    between atoms: _302  and  _303
REMARK  124  A    between atoms: _302  and  _305
REMARK  125  A    between atoms: _305  and  _306
REMARK  126  A    between atoms: _306  and  _307
REMARK  127  A    between atoms: _307  and  _308
REMARK  128  A    between atoms: _308  and  _309
REMARK  129  A    between atoms: _313  and  _315
REMARK  130  A    between atoms: _315  and  _316
REMARK  131  A    between atoms: _315  and  _318
REMARK  132  A    between atoms: _318  and  _319
REMARK  133  A    between atoms: _319  and  _320
REMARK  134  A    between atoms: _320  and  _321
REMARK  135  A    between atoms: _321  and  _322
REMARK  136  A    between atoms: _326  and  _328
REMARK  137  A    between atoms: _328  and  _329
REMARK  138  A    between atoms: _328  and  _331
REMARK  139  A    between atoms: _331  and  _332
REMARK  140  A    between atoms: _335  and  _337
REMARK  141  A    between atoms: _337  and  _338
REMARK  142  A    between atoms: _341  and  _343
REMARK  143  A    between atoms: _343  and  _344
REMARK  144  A    between atoms: _343  and  _346
REMARK  145  A    between atoms: _346  and  _347
REMARK  146  A    between atoms: _347  and  _348
REMARK  147  A    between atoms: _348  and  _349
REMARK  148  A    between atoms: _349  and  _350
REMARK  149  A    between atoms: _355  and  _356
REMARK  150  A    between atoms: _361  and  _363
REMARK  151  A    between atoms: _363  and  _364
REMARK  152  A    between atoms: _367  and  _369
REMARK  153  A    between atoms: _369  and  _370
REMARK  154  A    between atoms: _369  and  _372
REMARK  155  A    between atoms: _375  and  _377
REMARK  156  A    between atoms: _377  and  _378
REMARK  157  A    between atoms: _377  and  _380
REMARK  158  A    between atoms: _380  and  _381
REMARK  159  A    between atoms: _387  and  _389
REMARK  160  A    between atoms: _389  and  _390
REMARK  161  A    between atoms: _389  and  _392
REMARK  162  A    between atoms: _392  and  _393
REMARK  163  A    between atoms: _396  and  _398
REMARK  164  A    between atoms: _398  and  _399
REMARK  165  A    between atoms: _398  and  _401
REMARK  166  A    between atoms: _401  and  _402
REMARK  167  A    between atoms: _405  and  _407
REMARK  168  A    between atoms: _407  and  _408
REMARK  169  A    between atoms: _407  and  _410
REMARK  170  A    between atoms: _410  and  _411
REMARK  171  A    between atoms: _414  and  _416
REMARK  172  A    between atoms: _416  and  _417
REMARK  173  A    between atoms: _416  and  _419
REMARK  174  A    between atoms: _419  and  _420
REMARK  175  A    between atoms: _425  and  _427
REMARK  176  A    between atoms: _427  and  _428
REMARK  177  A    between atoms: _427  and  _430
REMARK  178  A    between atoms: _430  and  _431
REMARK  179  A    between atoms: _431  and  _432
REMARK  180  A    between atoms: _432  and  _433
REMARK  181  A    between atoms: _433  and  _434
REMARK  182  A    between atoms: _438  and  _440
REMARK  183  A    between atoms: _440  and  _441
REMARK  184  A    between atoms: _440  and  _443
REMARK  185  A    between atoms: _446  and  _448
REMARK  186  A    between atoms: _448  and  _449
REMARK  187  A    between atoms: _448  and  _451
REMARK  188  A    between atoms: _451  and  _452
REMARK  189  A    between atoms: _455  and  _457
REMARK  190  A    between atoms: _457  and  _458
REMARK  191  A    between atoms: _457  and  _460
REMARK  192  A    between atoms: _463  and  _465
REMARK  193  A    between atoms: _465  and  _466
REMARK  194  A    between atoms: _465  and  _468
REMARK  195  A    between atoms: _468  and  _469
REMARK  196  A    between atoms: _472  and  _474
REMARK  197  A    between atoms: _474  and  _475
REMARK  198  A    between atoms: _474  and  _477
REMARK  199  A    between atoms: _477  and  _478
REMARK  200  A    between atoms: _481  and  _483
REMARK  201  A    between atoms: _483  and  _484
REMARK  202  A    between atoms: _483  and  _486
REMARK  203  A    between atoms: _486  and  _487
REMARK  204  A    between atoms: _490  and  _492
REMARK  205  A    between atoms: _492  and  _493
REMARK  206  A    between atoms: _492  and  _495
REMARK  207  A    between atoms: _495  and  _496
REMARK  208  A    between atoms: _499  and  _501
REMARK  209  A    between atoms: _501  and  _502
REMARK  210  A    between atoms: _501  and  _504
REMARK  211  A    between atoms: _504  and  _505
REMARK  212  A    between atoms: _508  and  _510
REMARK  213  A    between atoms: _510  and  _511
REMARK  214  A    between atoms: _510  and  _513
REMARK  215  A    between atoms: _513  and  _514
REMARK  216  A    between atoms: _520  and  _522
REMARK  217  A    between atoms: _522  and  _523
REMARK  218  A    between atoms: _522  and  _525
REMARK  219  A    between atoms: _525  and  _526
REMARK  220  A    between atoms: _526  and  _558
REMARK  221  A    between atoms: _527  and  _529
REMARK  222  A    between atoms: _529  and  _530
REMARK  223  A    between atoms: _529  and  _532
REMARK  224  A    between atoms: _532  and  _533
REMARK  225  A    between atoms: _533  and  _534
REMARK  226  A    between atoms: _536  and  _538
REMARK  227  A    between atoms: _538  and  _539
REMARK  228  A    between atoms: _538  and  _541
REMARK  229  A    between atoms: _541  and  _542
REMARK  230  A    between atoms: _542  and  _543
REMARK  231  A    between atoms: _546  and  _548
REMARK  232  A    between atoms: _548  and  _549
REMARK  233  A    between atoms: _552  and  _554
REMARK  234  A    between atoms: _554  and  _555
REMARK  235  A    between atoms: _554  and  _557
REMARK  236  A    between atoms: _557  and  _558
REMARK  237  A    between atoms: _559  and  _561
REMARK  238  A    between atoms: _561  and  _562
REMARK  239  A    between atoms: _561  and  _564
REMARK  240  A    between atoms: _564  and  _565
REMARK  241  A    between atoms: _565  and  _566
REMARK  242  A    between atoms: _571  and  _573
REMARK  243  A    between atoms: _573  and  _574
REMARK  244  A    between atoms: _573  and  _576
REMARK  245  A    between atoms: _576  and  _577
REMARK                            x       y       z     vdW  Elec       q    Type
REMARK                         _______ _______ _______ _____ _____    ______ ____
ROOT
ATOM      1  CA  LEU A   4     -11.402  16.632  16.911  0.00  0.00    +0.149 C 
ENDROOT
BRANCH   1   2
ATOM      2  C   LEU A   4     -10.730  17.851  17.547  0.00  0.00    +0.241 C 
ATOM      3  O   LEU A   4     -10.431  17.876  18.768  0.00  0.00    -0.273 OA
ATOM      4  N   VAL A   5     -10.534  18.897  16.750  0.00  0.00    -0.297 N 
ATOM      5  H   VAL A   5     -10.846  18.855  15.759  0.00  0.00    +0.150 HD
BRANCH   4   6
ATOM      6  CA  VAL A   5      -9.882  20.110  17.256  0.00  0.00    +0.149 C 
BRANCH   6   7
ATOM      7  C   VAL A   5     -10.945  21.053  17.751  0.00  0.00    +0.241 C 
ATOM      8  N   LEU A   6     -10.963  21.311  19.070  0.00  0.00    -0.297 N 
ATOM      9  H   LEU A   6     -10.197  20.933  19.664  0.00  0.00    +0.150 HD
ATOM     10  O   VAL A   5     -11.734  21.552  16.922  0.00  0.00    -0.273 OA
BRANCH   8  11
ATOM     11  CA  LEU A   6     -12.020  22.104  19.703  0.00  0.00    +0.149 C 
BRANCH  11  12
ATOM     12  C   LEU A   6     -11.751  23.600  19.678  0.00  0.00    +0.241 C 
ATOM     13  N   ASP A   7     -10.479  23.961  19.878  0.00  0.00    -0.297 N 
ATOM     14  H   ASP A   7      -9.756  23.217  19.954  0.00  0.00    +0.150 HD
ATOM     15  O   LEU A   6     -12.693  24.410  19.530  0.00  0.00    -0.273 OA
BRANCH  13  16
ATOM     16  CA  ASP A   7     -10.066  25.343  19.993  0.00  0.00    +0.160 C 
BRANCH  16  17
ATOM     17  C   ASP A   7      -8.548  25.435  19.918  0.00  0.00    +0.241 C 
ATOM     18  O   ASP A   7      -7.856  24.559  20.393  0.00  0.00    -0.273 OA
ATOM     19  N   THR A   8      -8.036  26.498  19.310  0.00  0.00    -0.296 N 
ATOM     20  H   THR A   8      -8.677  27.164  18.834  0.00  0.00    +0.150 HD
BRANCH  19  21
ATOM     21  CA  THR A   8      -6.598  26.761  19.289  0.00  0.00    +0.164 C 
BRANCH  21  22
ATOM     22  C   THR A   8      -6.377  28.202  18.891  0.00  0.00    +0.229 C 
ATOM     23  O   THR A   8      -7.158  28.753  18.130  0.00  0.00    -0.286 OA
ENDBRANCH  21  22
BRANCH  21  24
ATOM     24  CB  THR A   8      -5.838  25.819  18.333  0.00  0.00    +0.136 C 
ATOM     25  CG2 THR A   8      -6.312  25.969  16.863  0.00  0.00    +0.034 C 
BRANCH  24  26
ATOM     26  OG1 THR A   8      -4.420  26.052  18.419  0.00  0.00    -0.382 OA
ATOM     27  HG1 THR A   8      -4.115  25.885  19.346  0.00  0.00    +0.210 HD
ENDBRANCH  24  26
ENDBRANCH  21  24
ENDBRANCH  19  21
ENDBRANCH  16  17
BRANCH  16  28
ATOM     28  CB  ASP A   7     -10.538  25.906  21.346  0.00  0.00    +0.143 C 
BRANCH  28  29
ATOM     29  CG  ASP A   7     -10.503  27.412  21.392  0.00  0.00    +0.367 C 
ATOM     30  OD2 ASP A   7     -10.425  27.967  22.510  0.00  0.00    -0.246 OA
ATOM     31  OD1 ASP A   7     -10.574  28.035  20.311  0.00  0.00    -0.246 OA
ENDBRANCH  28  29
ENDBRANCH  16  28
ENDBRANCH  13  16
ENDBRANCH  11  12
BRANCH  11  32
ATOM     32  CB  LEU A   6     -12.265  21.721  21.189  0.00  0.00    +0.029 C 
BRANCH  32  33
ATOM     33  CG  LEU A   6     -12.388  20.338  21.836  0.00  0.00    +0.002 C 
ATOM     34  CD2 LEU A   6     -13.328  20.409  23.006  0.00  0.00    +0.000 C 
ATOM     35  CD1 LEU A   6     -12.807  19.250  20.936  0.00  0.00    +0.000 C 
ENDBRANCH  32  33
ENDBRANCH  11  32
ENDBRANCH   8  11
ENDBRANCH   6   7
BRANCH   6  36
ATOM     36  CB  VAL A   5      -9.045  20.817  16.168  0.00  0.00    +0.027 C 
ATOM     37  CG2 VAL A   5      -8.533  22.232  16.645  0.00  0.00    +0.002 C 
ATOM     38  CG1 VAL A   5      -7.877  19.911  15.715  0.00  0.00    +0.002 C 
ENDBRANCH   6  36
ENDBRANCH   4   6
ENDBRANCH   1   2
BRANCH   1  40
ATOM     39  C   VAL A   3     -10.243  14.653  16.092  0.00  0.00    +0.241 C 
ATOM     40  N   LEU A   4     -10.683  15.372  17.112  0.00  0.00    -0.297 N 
ATOM     41  H   LEU A   4     -10.514  15.034  18.081  0.00  0.00    +0.150 HD
ATOM     42  O   VAL A   3     -10.312  15.040  14.922  0.00  0.00    -0.273 OA
BRANCH  39  43
ATOM     43  CA  VAL A   3      -9.607  13.318  16.421  0.00  0.00    +0.149 C 
BRANCH  43  46
ATOM     44  C   LYS A   2     -11.037  11.371  16.203  0.00  0.00    +0.241 C 
ATOM     45  O   LYS A   2     -11.190  11.252  17.430  0.00  0.00    -0.273 OA
ATOM     46  N   VAL A   3     -10.283  12.312  15.638  0.00  0.00    -0.297 N 
ATOM     47  H   VAL A   3     -10.178  12.322  14.603  0.00  0.00    +0.150 HD
BRANCH  44  48
ATOM     48  CA  LYS A   2     -11.714  10.417  15.236  0.00  0.00    +0.149 C 
BRANCH  48  50
ATOM     49  C   ASN A   1     -10.421   8.336  15.265  0.00  0.00    +0.239 C 
ATOM     50  N   LYS A   2     -11.503   9.024  15.619  0.00  0.00    -0.297 N 
ATOM     51  H   LYS A   2     -12.229   8.550  16.193  0.00  0.00    +0.150 HD
ATOM     52  O   ASN A   1      -9.452   8.827  14.672  0.00  0.00    -0.274 OA
BRANCH  49  53
ATOM     53  CA  ASN A   1     -10.435   6.871  15.674  0.00  0.00    +0.154 C 
BRANCH  53  54
ATOM     54  N   ASN A   1     -10.232   5.910  14.589  0.00  0.00    -0.238 NA
ATOM     55  H   ASN A   1      -9.397   5.291  14.626  0.00  0.00    +0.142 HD
ENDBRANCH  53  54
BRANCH  53  56
ATOM     56  CB  ASN A   1      -9.441   6.637  16.817  0.00  0.00    +0.111 C 
BRANCH  56  57
ATOM     57  CG  ASN A   1     -10.071   5.924  17.995  0.00  0.00    +0.221 C 
ATOM     58  OD1 ASN A   1     -10.251   6.519  19.063  0.00  0.00    -0.275 OA
ATOM     59  ND2 ASN A   1     -10.433   4.645  17.809  0.00  0.00    -0.329 N 
ATOM     60 HD21 ASN A   1     -10.885   4.115  18.581  0.00  0.00    +0.145 HD
ATOM     61 HD22 ASN A   1     -10.262   4.184  16.893  0.00  0.00    +0.145 HD
ENDBRANCH  56  57
ENDBRANCH  53  56
ENDBRANCH  49  53
ENDBRANCH  48  50
BRANCH  48  62
ATOM     62  CB  LYS A   2     -13.207  10.720  15.159  0.00  0.00    +0.029 C 
BRANCH  62  63
ATOM     63  CG  LYS A   2     -13.950  10.063  13.987  0.00  0.00    +0.000 C 
BRANCH  63  64
ATOM     64  CD  LYS A   2     -15.463  10.383  14.003  0.00  0.00    -0.024 C 
BRANCH  64  65
ATOM     65  CE  LYS A   2     -15.735  11.883  14.169  0.00  0.00    -0.086 C 
BRANCH  65  66
ATOM     66  NZ  LYS A   2     -15.480  12.354  15.570  0.00  0.00    +0.380 N 
ATOM     67  HZ1 LYS A   2     -16.100  11.838  16.226  0.00  0.00    -0.089 HD
ATOM     68  HZ2 LYS A   2     -14.486  12.176  15.819  0.00  0.00    -0.089 HD
ATOM     69  HZ3 LYS A   2     -15.677  13.373  15.633  0.00  0.00    -0.089 HD
ENDBRANCH  65  66
ENDBRANCH  64  65
ENDBRANCH  63  64
ENDBRANCH  62  63
ENDBRANCH  48  62
ENDBRANCH  44  48
ENDBRANCH  43  46
BRANCH  43  70
ATOM     70  CB  VAL A   3      -8.087  13.355  16.116  0.00  0.00    +0.027 C 
ATOM     71  CG2 VAL A   3      -7.392  12.173  16.767  0.00  0.00    +0.002 C 
ATOM     72  CG1 VAL A   3      -7.477  14.640  16.579  0.00  0.00    +0.002 C 
ENDBRANCH  43  70
ENDBRANCH  39  43
ENDBRANCH   1  40
BRANCH   1  73
ATOM     73  CB  LEU A   4     -12.853  16.494  17.423  0.00  0.00    +0.029 C 
BRANCH  73  74
ATOM     74  CG  LEU A   4     -13.651  15.241  17.060  0.00  0.00    +0.002 C 
ATOM     75  CD2 LEU A   4     -13.362  14.088  18.046  0.00  0.00    +0.000 C 
ATOM     76  CD1 LEU A   4     -15.193  15.521  16.957  0.00  0.00    +0.000 C 
ENDBRANCH  73  74
ENDBRANCH   1  73
TORSDOF 33
REMARK  Name = ../refined-set-2016/3uex/3uex_pocket.pdb
REMARK  245 active torsions:
REMARK  status: ('A' for Active; 'I' for Inactive)
REMARK    1  A    between atoms: _1  and  _3
REMARK    2  A    between atoms: _3  and  _4
REMARK    3  A    between atoms: _3  and  _6
REMARK    4  A    between atoms: _6  and  _7
REMARK    5  A    between atoms: _10  and  _12
REMARK    6  A    between atoms: _12  and  _13
REMARK    7  A    between atoms: _12  and  _15
REMARK    8  A    between atoms: _15  and  _16
REMARK    9  A    between atoms: _19  and  _21
REMARK   10  A    between atoms: _21  and  _22
REMARK   11  A    between atoms: _21  and  _24
REMARK   12  A    between atoms: _27  and  _29
REMARK   13  A    between atoms: _29  and  _30
REMARK   14  A    between atoms: _33  and  _35
REMARK   15  A    between atoms: _35  and  _36
REMARK   16  A    between atoms: _35  and  _38
REMARK   17  A    between atoms: _38  and  _39
REMARK   18  A    between atoms: _49  and  _51
REMARK   19  A    between atoms: _51  and  _52
REMARK   20  A    between atoms: _51  and  _54
REMARK   21  A    between atoms: _54  and  _55
REMARK   22  A    between atoms: _57  and  _59
REMARK   23  A    between atoms: _59  and  _60
REMARK   24  A    between atoms: _59  and  _62
REMARK   25  A    between atoms: _62  and  _63
REMARK   26  A    between atoms: _65  and  _67
REMARK   27  A    between atoms: _67  and  _68
REMARK   28  A    between atoms: _72  and  _73
REMARK   29  A    between atoms: _78  and  _80
REMARK   30  A    between atoms: _80  and  _81
REMARK   31  A    between atoms: _80  and  _83
REMARK   32  A    between atoms: _83  and  _84
REMARK   33  A    between atoms: _87  and  _89
REMARK   34  A    between atoms: _89  and  _90
REMARK   35  A    between atoms: _89  and  _92
REMARK   36  A    between atoms: _92  and  _93
REMARK   37  A    between atoms: _93  and  _94
REMARK   38  A    between atoms: _94  and  _95
REMARK   39  A    between atoms: _104  and  _106
REMARK   40  A    between atoms: _106  and  _107
REMARK   41  A    between atoms: _106  and  _109
REMARK   42  A    between atoms: _112  and  _114
REMARK   43  A    between atoms: _114  and  _115
REMARK   44  A    between atoms: _114  and  _117
REMARK   45  A    between atoms: _117  and  _118
REMARK   46  A    between atoms: _123  and  _124
REMARK   47  A    between atoms: _126  and  _128
REMARK   48  A    between atoms: _128  and  _129
REMARK   49  A    between atoms: _128  and  _131
REMARK   50  A    between atoms: _134  and  _136
REMARK   51  A    between atoms: _136  and  _137
REMARK   52  A    between atoms: _136  and  _139
REMARK   53  A    between atoms: _139  and  _140
REMARK   54  A    between atoms: _140  and  _141
REMARK   55  A    between atoms: _144  and  _146
REMARK   56  A    between atoms: _146  and  _147
REMARK   57  A    between atoms: _146  and  _149
REMARK   58  A    between atoms: _149  and  _150
REMARK   59  A    between atoms: _150  and  _151
REMARK   60  A    between atoms: _154  and  _156
REMARK   61  A    between atoms: _156  and  _157
REMARK   62  A    between atoms: _156  and  _159
REMARK   63  A    between atoms: _159  and  _160
REMARK   64  A    between atoms: _163  and  _165
REMARK   65  A    between atoms: _165  and  _166
REMARK   66  A    between atoms: _165  and  _168
REMARK   67  A    between atoms: _168  and  _169
REMARK   68  A    between atoms: _169  and  _170
REMARK   69  A    between atoms: _170  and  _171
REMARK   70  A    between atoms: _171  and  _172
REMARK   71  A    between atoms: _177  and  _178
REMARK   72  A    between atoms: _183  and  _185
REMARK   73  A    between atoms: _185  and  _186
REMARK   74  A    between atoms: _188  and  _190
REMARK   75  A    between atoms: _190  and  _191
REMARK   76  A    between atoms: _190  and  _193
REMARK   77  A    between atoms: _193  and  _194
REMARK   78  A    between atoms: _197  and  _199
REMARK   79  A    between atoms: _199  and  _200
REMARK   80  A    between atoms: _199  and  _202
REMARK   81  A    between atoms: _202  and  _203
REMARK   82  A    between atoms: _206  and  _208
REMARK   83  A    between atoms: _208  and  _209
REMARK   84  A    between atoms: _208  and  _211
REMARK   85  A    between atoms: _211  and  _212
REMARK   86  A    between atoms: _212  and  _213
REMARK   87  A    between atoms: _216  and  _218
REMARK   88  A    between atoms: _218  and  _219
REMARK   89  A    between atoms: _218  and  _221
REMARK   90  A    between atoms: _221  and  _222
REMARK   91  A    between atoms: _225  and  _227
REMARK   92  A    between atoms: _227  and  _228
REMARK   93  A    between atoms: _227  and  _230
REMARK   94  A    between atoms: _230  and  _231
REMARK   95  A    between atoms: _234  and  _236
REMARK   96  A    between atoms: _236  and  _237
REMARK   97  A    between atoms: _236  and  _239
REMARK   98  A    between atoms: _239  and  _240
REMARK   99  A    between atoms: _243  and  _245
REMARK  100  A    between atoms: _245  and  _246
REMARK  101  A    between atoms: _245  and  _248
REMARK  102  A    between atoms: _248  and  _249
REMARK  103  A    between atoms: _249  and  _250
REMARK  104  A    between atoms: _255  and  _257
REMARK  105  A    between atoms: _257  and  _258
REMARK  106  A    between atoms: _257  and  _260
REMARK  107  A    between atoms: _260  and  _261
REMARK  108  A    between atoms: _261  and  _262
REMARK  109  A    between atoms: _262  and  _263
REMARK  110  A    between atoms: _263  and  _264
REMARK  111  A    between atoms: _268  and  _270
REMARK  112  A    between atoms: _270  and  _271
REMARK  113  A    between atoms: _270  and  _273
REMARK  114  A    between atoms: _273  and  _274
REMARK  115  A    between atoms: _284  and  _286
REMARK  116  A    between atoms: _286  and  _287
REMARK  117  A    between atoms: _286  and  _289
REMARK  118  A    between atoms: _289  and  _290
REMARK  119  A    between atoms: _290  and  _291
REMARK  120  A    between atoms: _294  and  _296
REMARK  121  A    between atoms: _296  and  _297
REMARK  122  A    between atoms: _300  and  _302
REMARK  123  A    between atoms: _302  and  _303
REMARK  124  A    between atoms: _302  and  _305
REMARK  125  A    between atoms: _305  and  _306
REMARK  126  A    between atoms: _306  and  _307
REMARK  127  A    between atoms: _307  and  _308
REMARK  128  A    between atoms: _308  and  _309
REMARK  129  A    between atoms: _313  and  _315
REMARK  130  A    between atoms: _315  and  _316
REMARK  131  A    between atoms: _315  and  _318
REMARK  132  A    between atoms: _318  and  _319
REMARK  133  A    between atoms: _319  and  _320
REMARK  134  A    between atoms: _320  and  _321
REMARK  135  A    between atoms: _321  and  _322
REMARK  136  A    between atoms: _326  and  _328
REMARK  137  A    between atoms: _328  and  _329
REMARK  138  A    between atoms: _328  and  _331
REMARK  139  A    between atoms: _331  and  _332
REMARK  140  A    between atoms: _335  and  _337
REMARK  141  A    between atoms: _337  and  _338
REMARK  142  A    between atoms: _341  and  _343
REMARK  143  A    between atoms: _343  and  _344
REMARK  144  A    between atoms: _343  and  _346
REMARK  145  A    between atoms: _346  and  _347
REMARK  146  A    between atoms: _347  and  _348
REMARK  147  A    between atoms: _348  and  _349
REMARK  148  A    between atoms: _349  and  _350
REMARK  149  A    between atoms: _355  and  _356
REMARK  150  A    between atoms: _361  and  _363
REMARK  151  A    between atoms: _363  and  _364
REMARK  152  A    between atoms: _367  and  _369
REMARK  153  A    between atoms: _369  and  _370
REMARK  154  A    between atoms: _369  and  _372
REMARK  155  A    between atoms: _375  and  _377
REMARK  156  A    between atoms: _377  and  _378
REMARK  157  A    between atoms: _377  and  _380
REMARK  158  A    between atoms: _380  and  _381
REMARK  159  A    between atoms: _387  and  _389
REMARK  160  A    between atoms: _389  and  _390
REMARK  161  A    between atoms: _389  and  _392
REMARK  162  A    between atoms: _392  and  _393
REMARK  163  A    between atoms: _396  and  _398
REMARK  164  A    between atoms: _398  and  _399
REMARK  165  A    between atoms: _398  and  _401
REMARK  166  A    between atoms: _401  and  _402
REMARK  167  A    between atoms: _405  and  _407
REMARK  168  A    between atoms: _407  and  _408
REMARK  169  A    between atoms: _407  and  _410
REMARK  170  A    between atoms: _410  and  _411
REMARK  171  A    between atoms: _414  and  _416
REMARK  172  A    between atoms: _416  and  _417
REMARK  173  A    between atoms: _416  and  _419
REMARK  174  A    between atoms: _419  and  _420
REMARK  175  A    between atoms: _425  and  _427
REMARK  176  A    between atoms: _427  and  _428
REMARK  177  A    between atoms: _427  and  _430
REMARK  178  A    between atoms: _430  and  _431
REMARK  179  A    between atoms: _431  and  _432
REMARK  180  A    between atoms: _432  and  _433
REMARK  181  A    between atoms: _433  and  _434
REMARK  182  A    between atoms: _438  and  _440
REMARK  183  A    between atoms: _440  and  _441
REMARK  184  A    between atoms: _440  and  _443
REMARK  185  A    between atoms: _446  and  _448
REMARK  186  A    between atoms: _448  and  _449
REMARK  187  A    between atoms: _448  and  _451
REMARK  188  A    between atoms: _451  and  _452
REMARK  189  A    between atoms: _455  and  _457
REMARK  190  A    between atoms: _457  and  _458
REMARK  191  A    between atoms: _457  and  _460
REMARK  192  A    between atoms: _463  and  _465
REMARK  193  A    between atoms: _465  and  _466
REMARK  194  A    between atoms: _465  and  _468
REMARK  195  A    between atoms: _468  and  _469
REMARK  196  A    between atoms: _472  and  _474
REMARK  197  A    between atoms: _474  and  _475
REMARK  198  A    between atoms: _474  and  _477
REMARK  199  A    between atoms: _477  and  _478
REMARK  200  A    between atoms: _481  and  _483
REMARK  201  A    between atoms: _483  and  _484
REMARK  202  A    between atoms: _483  and  _486
REMARK  203  A    between atoms: _486  and  _487
REMARK  204  A    between atoms: _490  and  _492
REMARK  205  A    between atoms: _492  and  _493
REMARK  206  A    between atoms: _492  and  _495
REMARK  207  A    between atoms: _495  and  _496
REMARK  208  A    between atoms: _499  and  _501
REMARK  209  A    between atoms: _501  and  _502
REMARK  210  A    between atoms: _501  and  _504
REMARK  211  A    between atoms: _504  and  _505
REMARK  212  A    between atoms: _508  and  _510
REMARK  213  A    between atoms: _510  and  _511
REMARK  214  A    between atoms: _510  and  _513
REMARK  215  A    between atoms: _513  and  _514
REMARK  216  A    between atoms: _520  and  _522
REMARK  217  A    between atoms: _522  and  _523
REMARK  218  A    between atoms: _522  and  _525
REMARK  219  A    between atoms: _525  and  _526
REMARK  220  A    between atoms: _526  and  _558
REMARK  221  A    between atoms: _527  and  _529
REMARK  222  A    between atoms: _529  and  _530
REMARK  223  A    between atoms: _529  and  _532
REMARK  224  A    between atoms: _532  and  _533
REMARK  225  A    between atoms: _533  and  _534
REMARK  226  A    between atoms: _536  and  _538
REMARK  227  A    between atoms: _538  and  _539
REMARK  228  A    between atoms: _538  and  _541
REMARK  229  A    between atoms: _541  and  _542
REMARK  230  A    between atoms: _542  and  _543
REMARK  231  A    between atoms: _546  and  _548
REMARK  232  A    between atoms: _548  and  _549
REMARK  233  A    between atoms: _552  and  _554
REMARK  234  A    between atoms: _554  and  _555
REMARK  235  A    between atoms: _554  and  _557
REMARK  236  A    between atoms: _557  and  _558
REMARK  237  A    between atoms: _559  and  _561
REMARK  238  A    between atoms: _561  and  _562
REMARK  239  A    between atoms: _561  and  _564
REMARK  240  A    between atoms: _564  and  _565
REMARK  241  A    between atoms: _565  and  _566
REMARK  242  A    between atoms: _571  and  _573
REMARK  243  A    between atoms: _573  and  _574
REMARK  244  A    between atoms: _573  and  _576
REMARK  245  A    between atoms: _576  and  _577
REMARK                            x       y       z     vdW  Elec       q    Type
REMARK                         _______ _______ _______ _____ _____    ______ ____
ROOT
ATOM      1  CA  CYS A   4     -10.382  15.257  21.895  0.00  0.00    +0.160 C 
ENDROOT
BRANCH   1   2
ATOM      2  C   CYS A   4     -10.213  14.101  20.922  0.00  0.00    +0.242 C 
ATOM      3  N   MET A   5     -10.053  12.889  21.456  0.00  0.00    -0.297 N 
ATOM      4  H   MET A   5     -10.011  12.808  22.492  0.00  0.00    +0.150 HD
ATOM      5  O   CYS A   4     -10.201  14.308  19.716  0.00  0.00    -0.273 OA
BRANCH   3   6
ATOM      6  CA  MET A   5      -9.933  11.666  20.658  0.00  0.00    +0.149 C 
BRANCH   6   7
ATOM      7  C   MET A   5     -11.054  10.765  21.060  0.00  0.00    +0.241 C 
ATOM      8  O   MET A   5     -11.266  10.551  22.244  0.00  0.00    -0.273 OA
ATOM      9  N   GLU A   6     -11.768  10.209  20.093  0.00  0.00    -0.298 N 
ATOM     10  H   GLU A   6     -11.535  10.390  19.096  0.00  0.00    +0.150 HD
BRANCH   9  11
ATOM     11  CA  GLU A   6     -12.888   9.337  20.446  0.00  0.00    +0.137 C 
BRANCH  11  12
ATOM     12  C   GLU A   6     -13.049   8.182  19.471  0.00  0.00    +0.227 C 
ATOM     13  O   GLU A   6     -12.677   8.297  18.293  0.00  0.00    -0.286 OA
ENDBRANCH  11  12
BRANCH  11  14
ATOM     14  CB  GLU A   6     -14.189  10.145  20.527  0.00  0.00    +0.039 C 
BRANCH  14  15
ATOM     15  CG  GLU A   6     -14.826  10.439  19.171  0.00  0.00    +0.116 C 
BRANCH  15  16
ATOM     16  CD  GLU A   6     -16.115  11.227  19.260  0.00  0.00    +0.365 C 
ATOM     17  OE2 GLU A   6     -16.311  11.974  20.256  0.00  0.00    -0.246 OA
ATOM     18  OE1 GLU A   6     -16.917  11.120  18.304  0.00  0.00    -0.246 OA
ENDBRANCH  15  16
ENDBRANCH  14  15
ENDBRANCH  11  14
ENDBRANCH   9  11
ENDBRANCH   6   7
BRANCH   6  19
ATOM     19  CB  MET A   5      -8.649  10.875  20.986  0.00  0.00    +0.041 C 
BRANCH  19  20
ATOM     20  CG  MET A   5      -7.373  11.668  21.113  0.00  0.00    +0.060 C 
BRANCH  20  21
ATOM     21  SD  MET A   5      -6.065  10.634  21.807  0.00  0.00    -0.139 S 
ATOM     22  CE  MET A   5      -6.136  11.034  23.554  0.00  0.00    +0.069 C 
ENDBRANCH  20  21
ENDBRANCH  19  20
ENDBRANCH   6  19
ENDBRANCH   3   6
ENDBRANCH   1   2
BRANCH   1  25
ATOM     23  C   GLN A   3      -8.971  17.254  21.978  0.00  0.00    +0.241 C 
ATOM     24  O   GLN A   3      -8.616  17.064  23.155  0.00  0.00    -0.273 OA
ATOM     25  N   CYS A   4      -9.811  16.471  21.327  0.00  0.00    -0.296 N 
ATOM     26  H   CYS A   4     -10.079  16.735  20.357  0.00  0.00    +0.150 HD
BRANCH  23  27
ATOM     27  CA  GLN A   3      -8.400  18.403  21.149  0.00  0.00    +0.153 C 
BRANCH  27  29
ATOM     28  C   CYS A   2      -8.127  20.758  21.722  0.00  0.00    +0.241 C 
ATOM     29  N   GLN A   3      -7.899  19.470  21.970  0.00  0.00    -0.297 N 
ATOM     30  H   GLN A   3      -7.327  19.223  22.803  0.00  0.00    +0.150 HD
ATOM     31  O   CYS A   2      -8.749  21.167  20.730  0.00  0.00    -0.273 OA
BRANCH  28  32
ATOM     32  CA  CYS A   2      -7.592  21.731  22.756  0.00  0.00    +0.149 C 
BRANCH  32  35
ATOM     33  C   ALA A   1      -5.408  22.819  22.278  0.00  0.00    +0.238 C 
ATOM     34  O   ALA A   1      -4.803  22.147  23.099  0.00  0.00    -0.274 OA
ATOM     35  N   CYS A   2      -6.737  22.790  22.136  0.00  0.00    -0.297 N 
ATOM     36  H   CYS A   2      -7.195  23.534  21.572  0.00  0.00    +0.150 HD
BRANCH  33  37
ATOM     37  CA  ALA A   1      -4.643  23.788  21.406  0.00  0.00    +0.145 C 
BRANCH  37  38
ATOM     38  N   ALA A   1      -3.729  24.478  22.291  0.00  0.00    -0.238 NA
ATOM     39  H   ALA A   1      -3.265  23.965  23.068  0.00  0.00    +0.142 HD
ENDBRANCH  37  38
BRANCH  37  40
ATOM     40  CB  ALA A   1      -3.897  23.074  20.255  0.00  0.00    +0.026 C 
BRANCH  40  41
ATOM     41  CG  ALA A   1      -4.814  22.403  19.221  0.00  0.00    +0.002 C 
ATOM     42  CD2 ALA A   1      -4.919  20.908  19.582  0.00  0.00    +0.000 C 
ATOM     43  CD1 ALA A   1      -4.316  22.577  17.780  0.00  0.00    +0.000 C 
ENDBRANCH  40  41
ENDBRANCH  37  40
ENDBRANCH  33  37
ENDBRANCH  32  35
BRANCH  32  44
ATOM     44  CB  CYS A   2      -8.785  22.346  23.506  0.00  0.00    +0.029 C 
BRANCH  44  45
ATOM     45  CG  CYS A   2      -8.568  23.631  24.319  0.00  0.00    +0.002 C 
ATOM     46  CD2 CYS A   2      -7.625  23.365  25.513  0.00  0.00    +0.000 C 
ATOM     47  CD1 CYS A   2      -9.898  24.218  24.786  0.00  0.00    +0.000 C 
ENDBRANCH  44  45
ENDBRANCH  32  44
ENDBRANCH  28  32
ENDBRANCH  27  29
BRANCH  27  48
ATOM     48  CB  GLN A   3      -7.333  17.890  20.164  0.00  0.00    +0.055 C 
BRANCH  48  49
ATOM     49  CG  GLN A   3      -6.416  16.855  20.726  0.00  0.00    -0.020 A 
ATOM     50  CD2 GLN A   3      -5.187  17.221  21.269  0.00  0.00    -0.004 A 
ATOM     51  CE2 GLN A   3      -4.325  16.280  21.792  0.00  0.00    -0.000 A 
ATOM     52  CZ  GLN A   3      -4.661  14.953  21.786  0.00  0.00    -0.000 A 
ATOM     53  CE1 GLN A   3      -5.879  14.560  21.250  0.00  0.00    -0.000 A 
ATOM     54  CD1 GLN A   3      -6.753  15.526  20.705  0.00  0.00    -0.004 A 
ENDBRANCH  48  49
ENDBRANCH  27  48
ENDBRANCH  23  27
ENDBRANCH   1  25
BRANCH   1  55
ATOM     55  CB  CYS A   4     -11.857  15.468  22.259  0.00  0.00    +0.098 C 
BRANCH  55  56
ATOM     56  SG  CYS A   4     -12.207  16.548  23.728  0.00  0.00    -0.080 S 
BRANCH  56  57
ATOM     57  SG  CYS A   2     -11.728  15.449  25.348  0.00  0.00    -0.080 S 
BRANCH  57  58
ATOM     58  CB  CYS A   2     -10.107  16.019  25.875  0.00  0.00    +0.098 C 
BRANCH  58  59
ATOM     59  CA  CYS A   2      -8.933  15.072  25.567  0.00  0.00    +0.160 C 
BRANCH  59  60
ATOM     60  N   CYS A   2      -9.203  13.701  26.015  0.00  0.00    -0.297 N 
ATOM     61  H   CYS A   2      -9.121  13.490  27.030  0.00  0.00    +0.150 HD
ATOM     62  C   ALA A   1      -9.550  12.704  25.186  0.00  0.00    +0.238 C 
ATOM     63  O   ALA A   1      -9.688  12.836  23.943  0.00  0.00    -0.274 OA
BRANCH  62  64
ATOM     64  CA  ALA A   1      -9.840  11.365  25.854  0.00  0.00    +0.145 C 
ATOM     65  CB  ALA A   1      -8.609  10.509  25.897  0.00  0.00    +0.028 C 
BRANCH  64  66
ATOM     66  N   ALA A   1     -10.935  10.667  25.173  0.00  0.00    -0.238 NA
ATOM     67  H   ALA A   1     -10.898  10.555  24.140  0.00  0.00    +0.142 HD
ENDBRANCH  64  66
ENDBRANCH  62  64
ENDBRANCH  59  60
BRANCH  59  68
ATOM     68  C   CYS A   2      -7.661  15.643  26.191  0.00  0.00    +0.242 C 
ATOM     69  O   CYS A   2      -7.275  15.269  27.304  0.00  0.00    -0.273 OA
ATOM     70  N   GLN A   3      -7.017  16.561  25.473  0.00  0.00    -0.298 N 
ATOM     71  H   GLN A   3      -7.388  16.836  24.541  0.00  0.00    +0.150 HD
BRANCH  70  72
ATOM     72  CA  GLN A   3      -5.800  17.186  25.975  0.00  0.00    +0.137 C 
BRANCH  72  73
ATOM     73  C   GLN A   3      -5.827  18.644  25.759  0.00  0.00    +0.227 C 
ATOM     74  O   GLN A   3      -6.488  19.161  24.844  0.00  0.00    -0.286 OA
ENDBRANCH  72  73
BRANCH  72  75
ATOM     75  CB  GLN A   3      -4.508  16.602  25.346  0.00  0.00    +0.037 C 
BRANCH  75  76
ATOM     76  CG  GLN A   3      -4.395  15.088  25.398  0.00  0.00    +0.087 C 
BRANCH  76  77
ATOM     77  CD  GLN A   3      -2.971  14.567  25.118  0.00  0.00    +0.219 C 
ATOM     78  OE1 GLN A   3      -2.648  13.404  25.383  0.00  0.00    -0.275 OA
ATOM     79  NE2 GLN A   3      -2.128  15.420  24.599  0.00  0.00    -0.329 N 
ATOM     80 HE21 GLN A   3      -1.151  15.128  24.396  0.00  0.00    +0.145 HD
ATOM     81 HE22 GLN A   3      -2.434  16.391  24.389  0.00  0.00    +0.145 HD
ENDBRANCH  76  77
ENDBRANCH  75  76
ENDBRANCH  72  75
ENDBRANCH  70  72
ENDBRANCH  59  68
ENDBRANCH  58  59
ENDBRANCH  57  58
ENDBRANCH  56  57
ENDBRANCH  55  56
ENDBRANCH   1  55
TORSDOF 38
REMARK  Name = ../refined-set-2016/3uex/3uex_pocket.pdb
REMARK  245 active torsions:
REMARK  status: ('A' for Active; 'I' for Inactive)
REMARK    1  A    between atoms: _1  and  _3
REMARK    2  A    between atoms: _3  and  _4
REMARK    3  A    between atoms: _3  and  _6
REMARK    4  A    between atoms: _6  and  _7
REMARK    5  A    between atoms: _10  and  _12
REMARK    6  A    between atoms: _12  and  _13
REMARK    7  A    between atoms: _12  and  _15
REMARK    8  A    between atoms: _15  and  _16
REMARK    9  A    between atoms: _19  and  _21
REMARK   10  A    between atoms: _21  and  _22
REMARK   11  A    between atoms: _21  and  _24
REMARK   12  A    between atoms: _27  and  _29
REMARK   13  A    between atoms: _29  and  _30
REMARK   14  A    between atoms: _33  and  _35
REMARK   15  A    between atoms: _35  and  _36
REMARK   16  A    between atoms: _35  and  _38
REMARK   17  A    between atoms: _38  and  _39
REMARK   18  A    between atoms: _49  and  _51
REMARK   19  A    between atoms: _51  and  _52
REMARK   20  A    between atoms: _51  and  _54
REMARK   21  A    between atoms: _54  and  _55
REMARK   22  A    between atoms: _57  and  _59
REMARK   23  A    between atoms: _59  and  _60
REMARK   24  A    between atoms: _59  and  _62
REMARK   25  A    between atoms: _62  and  _63
REMARK   26  A    between atoms: _65  and  _67
REMARK   27  A    between atoms: _67  and  _68
REMARK   28  A    between atoms: _72  and  _73
REMARK   29  A    between atoms: _78  and  _80
REMARK   30  A    between atoms: _80  and  _81
REMARK   31  A    between atoms: _80  and  _83
REMARK   32  A    between atoms: _83  and  _84
REMARK   33  A    between atoms: _87  and  _89
REMARK   34  A    between atoms: _89  and  _90
REMARK   35  A    between atoms: _89  and  _92
REMARK   36  A    between atoms: _92  and  _93
REMARK   37  A    between atoms: _93  and  _94
REMARK   38  A    between atoms: _94  and  _95
REMARK   39  A    between atoms: _104  and  _106
REMARK   40  A    between atoms: _106  and  _107
REMARK   41  A    between atoms: _106  and  _109
REMARK   42  A    between atoms: _112  and  _114
REMARK   43  A    between atoms: _114  and  _115
REMARK   44  A    between atoms: _114  and  _117
REMARK   45  A    between atoms: _117  and  _118
REMARK   46  A    between atoms: _123  and  _124
REMARK   47  A    between atoms: _126  and  _128
REMARK   48  A    between atoms: _128  and  _129
REMARK   49  A    between atoms: _128  and  _131
REMARK   50  A    between atoms: _134  and  _136
REMARK   51  A    between atoms: _136  and  _137
REMARK   52  A    between atoms: _136  and  _139
REMARK   53  A    between atoms: _139  and  _140
REMARK   54  A    between atoms: _140  and  _141
REMARK   55  A    between atoms: _144  and  _146
REMARK   56  A    between atoms: _146  and  _147
REMARK   57  A    between atoms: _146  and  _149
REMARK   58  A    between atoms: _149  and  _150
REMARK   59  A    between atoms: _150  and  _151
REMARK   60  A    between atoms: _154  and  _156
REMARK   61  A    between atoms: _156  and  _157
REMARK   62  A    between atoms: _156  and  _159
REMARK   63  A    between atoms: _159  and  _160
REMARK   64  A    between atoms: _163  and  _165
REMARK   65  A    between atoms: _165  and  _166
REMARK   66  A    between atoms: _165  and  _168
REMARK   67  A    between atoms: _168  and  _169
REMARK   68  A    between atoms: _169  and  _170
REMARK   69  A    between atoms: _170  and  _171
REMARK   70  A    between atoms: _171  and  _172
REMARK   71  A    between atoms: _177  and  _178
REMARK   72  A    between atoms: _183  and  _185
REMARK   73  A    between atoms: _185  and  _186
REMARK   74  A    between atoms: _188  and  _190
REMARK   75  A    between atoms: _190  and  _191
REMARK   76  A    between atoms: _190  and  _193
REMARK   77  A    between atoms: _193  and  _194
REMARK   78  A    between atoms: _197  and  _199
REMARK   79  A    between atoms: _199  and  _200
REMARK   80  A    between atoms: _199  and  _202
REMARK   81  A    between atoms: _202  and  _203
REMARK   82  A    between atoms: _206  and  _208
REMARK   83  A    between atoms: _208  and  _209
REMARK   84  A    between atoms: _208  and  _211
REMARK   85  A    between atoms: _211  and  _212
REMARK   86  A    between atoms: _212  and  _213
REMARK   87  A    between atoms: _216  and  _218
REMARK   88  A    between atoms: _218  and  _219
REMARK   89  A    between atoms: _218  and  _221
REMARK   90  A    between atoms: _221  and  _222
REMARK   91  A    between atoms: _225  and  _227
REMARK   92  A    between atoms: _227  and  _228
REMARK   93  A    between atoms: _227  and  _230
REMARK   94  A    between atoms: _230  and  _231
REMARK   95  A    between atoms: _234  and  _236
REMARK   96  A    between atoms: _236  and  _237
REMARK   97  A    between atoms: _236  and  _239
REMARK   98  A    between atoms: _239  and  _240
REMARK   99  A    between atoms: _243  and  _245
REMARK  100  A    between atoms: _245  and  _246
REMARK  101  A    between atoms: _245  and  _248
REMARK  102  A    between atoms: _248  and  _249
REMARK  103  A    between atoms: _249  and  _250
REMARK  104  A    between atoms: _255  and  _257
REMARK  105  A    between atoms: _257  and  _258
REMARK  106  A    between atoms: _257  and  _260
REMARK  107  A    between atoms: _260  and  _261
REMARK  108  A    between atoms: _261  and  _262
REMARK  109  A    between atoms: _262  and  _263
REMARK  110  A    between atoms: _263  and  _264
REMARK  111  A    between atoms: _268  and  _270
REMARK  112  A    between atoms: _270  and  _271
REMARK  113  A    between atoms: _270  and  _273
REMARK  114  A    between atoms: _273  and  _274
REMARK  115  A    between atoms: _284  and  _286
REMARK  116  A    between atoms: _286  and  _287
REMARK  117  A    between atoms: _286  and  _289
REMARK  118  A    between atoms: _289  and  _290
REMARK  119  A    between atoms: _290  and  _291
REMARK  120  A    between atoms: _294  and  _296
REMARK  121  A    between atoms: _296  and  _297
REMARK  122  A    between atoms: _300  and  _302
REMARK  123  A    between atoms: _302  and  _303
REMARK  124  A    between atoms: _302  and  _305
REMARK  125  A    between atoms: _305  and  _306
REMARK  126  A    between atoms: _306  and  _307
REMARK  127  A    between atoms: _307  and  _308
REMARK  128  A    between atoms: _308  and  _309
REMARK  129  A    between atoms: _313  and  _315
REMARK  130  A    between atoms: _315  and  _316
REMARK  131  A    between atoms: _315  and  _318
REMARK  132  A    between atoms: _318  and  _319
REMARK  133  A    between atoms: _319  and  _320
REMARK  134  A    between atoms: _320  and  _321
REMARK  135  A    between atoms: _321  and  _322
REMARK  136  A    between atoms: _326  and  _328
REMARK  137  A    between atoms: _328  and  _329
REMARK  138  A    between atoms: _328  and  _331
REMARK  139  A    between atoms: _331  and  _332
REMARK  140  A    between atoms: _335  and  _337
REMARK  141  A    between atoms: _337  and  _338
REMARK  142  A    between atoms: _341  and  _343
REMARK  143  A    between atoms: _343  and  _344
REMARK  144  A    between atoms: _343  and  _346
REMARK  145  A    between atoms: _346  and  _347
REMARK  146  A    between atoms: _347  and  _348
REMARK  147  A    between atoms: _348  and  _349
REMARK  148  A    between atoms: _349  and  _350
REMARK  149  A    between atoms: _355  and  _356
REMARK  150  A    between atoms: _361  and  _363
REMARK  151  A    between atoms: _363  and  _364
REMARK  152  A    between atoms: _367  and  _369
REMARK  153  A    between atoms: _369  and  _370
REMARK  154  A    between atoms: _369  and  _372
REMARK  155  A    between atoms: _375  and  _377
REMARK  156  A    between atoms: _377  and  _378
REMARK  157  A    between atoms: _377  and  _380
REMARK  158  A    between atoms: _380  and  _381
REMARK  159  A    between atoms: _387  and  _389
REMARK  160  A    between atoms: _389  and  _390
REMARK  161  A    between atoms: _389  and  _392
REMARK  162  A    between atoms: _392  and  _393
REMARK  163  A    between atoms: _396  and  _398
REMARK  164  A    between atoms: _398  and  _399
REMARK  165  A    between atoms: _398  and  _401
REMARK  166  A    between atoms: _401  and  _402
REMARK  167  A    between atoms: _405  and  _407
REMARK  168  A    between atoms: _407  and  _408
REMARK  169  A    between atoms: _407  and  _410
REMARK  170  A    between atoms: _410  and  _411
REMARK  171  A    between atoms: _414  and  _416
REMARK  172  A    between atoms: _416  and  _417
REMARK  173  A    between atoms: _416  and  _419
REMARK  174  A    between atoms: _419  and  _420
REMARK  175  A    between atoms: _425  and  _427
REMARK  176  A    between atoms: _427  and  _428
REMARK  177  A    between atoms: _427  and  _430
REMARK  178  A    between atoms: _430  and  _431
REMARK  179  A    between atoms: _431  and  _432
REMARK  180  A    between atoms: _432  and  _433
REMARK  181  A    between atoms: _433  and  _434
REMARK  182  A    between atoms: _438  and  _440
REMARK  183  A    between atoms: _440  and  _441
REMARK  184  A    between atoms: _440  and  _443
REMARK  185  A    between atoms: _446  and  _448
REMARK  186  A    between atoms: _448  and  _449
REMARK  187  A    between atoms: _448  and  _451
REMARK  188  A    between atoms: _451  and  _452
REMARK  189  A    between atoms: _455  and  _457
REMARK  190  A    between atoms: _457  and  _458
REMARK  191  A    between atoms: _457  and  _460
REMARK  192  A    between atoms: _463  and  _465
REMARK  193  A    between atoms: _465  and  _466
REMARK  194  A    between atoms: _465  and  _468
REMARK  195  A    between atoms: _468  and  _469
REMARK  196  A    between atoms: _472  and  _474
REMARK  197  A    between atoms: _474  and  _475
REMARK  198  A    between atoms: _474  and  _477
REMARK  199  A    between atoms: _477  and  _478
REMARK  200  A    between atoms: _481  and  _483
REMARK  201  A    between atoms: _483  and  _484
REMARK  202  A    between atoms: _483  and  _486
REMARK  203  A    between atoms: _486  and  _487
REMARK  204  A    between atoms: _490  and  _492
REMARK  205  A    between atoms: _492  and  _493
REMARK  206  A    between atoms: _492  and  _495
REMARK  207  A    between atoms: _495  and  _496
REMARK  208  A    between atoms: _499  and  _501
REMARK  209  A    between atoms: _501  and  _502
REMARK  210  A    between atoms: _501  and  _504
REMARK  211  A    between atoms: _504  and  _505
REMARK  212  A    between atoms: _508  and  _510
REMARK  213  A    between atoms: _510  and  _511
REMARK  214  A    between atoms: _510  and  _513
REMARK  215  A    between atoms: _513  and  _514
REMARK  216  A    between atoms: _520  and  _522
REMARK  217  A    between atoms: _522  and  _523
REMARK  218  A    between atoms: _522  and  _525
REMARK  219  A    between atoms: _525  and  _526
REMARK  220  A    between atoms: _526  and  _558
REMARK  221  A    between atoms: _527  and  _529
REMARK  222  A    between atoms: _529  and  _530
REMARK  223  A    between atoms: _529  and  _532
REMARK  224  A    between atoms: _532  and  _533
REMARK  225  A    between atoms: _533  and  _534
REMARK  226  A    between atoms: _536  and  _538
REMARK  227  A    between atoms: _538  and  _539
REMARK  228  A    between atoms: _538  and  _541
REMARK  229  A    between atoms: _541  and  _542
REMARK  230  A    between atoms: _542  and  _543
REMARK  231  A    between atoms: _546  and  _548
REMARK  232  A    between atoms: _548  and  _549
REMARK  233  A    between atoms: _552  and  _554
REMARK  234  A    between atoms: _554  and  _555
REMARK  235  A    between atoms: _554  and  _557
REMARK  236  A    between atoms: _557  and  _558
REMARK  237  A    between atoms: _559  and  _561
REMARK  238  A    between atoms: _561  and  _562
REMARK  239  A    between atoms: _561  and  _564
REMARK  240  A    between atoms: _564  and  _565
REMARK  241  A    between atoms: _565  and  _566
REMARK  242  A    between atoms: _571  and  _573
REMARK  243  A    between atoms: _573  and  _574
REMARK  244  A    between atoms: _573  and  _576
REMARK  245  A    between atoms: _576  and  _577
REMARK                            x       y       z     vdW  Elec       q    Type
REMARK                         _______ _______ _______ _____ _____    ______ ____
ROOT
ATOM      1  CA  LEU A   1      -1.736  21.145  24.301  0.00  0.00    +0.133 C 
ENDROOT
BRANCH   1   2
ATOM      2  N   LEU A   1      -3.095  21.013  24.817  0.00  0.00    -0.239 NA
ATOM      3  H   LEU A   1      -3.901  21.169  24.178  0.00  0.00    +0.142 HD
ENDBRANCH   1   2
BRANCH   1   4
ATOM      4  C   LEU A   1      -1.288  22.576  24.462  0.00  0.00    +0.224 C 
ATOM      5  O   LEU A   1      -2.110  23.500  24.321  0.00  0.00    -0.287 OA
ENDBRANCH   1   4
BRANCH   1   6
ATOM      6  CB  LEU A   1      -1.727  20.764  22.831  0.00  0.00    +0.025 C 
BRANCH   6   7
ATOM      7  CG  LEU A   1      -1.885  19.283  22.531  0.00  0.00    +0.002 C 
ATOM      8  CD2 LEU A   1      -0.886  18.545  23.352  0.00  0.00    +0.000 C 
ATOM      9  CD1 LEU A   1      -1.688  19.006  21.016  0.00  0.00    +0.000 C 
ENDBRANCH   6   7
ENDBRANCH   1   6
TORSDOF 4
REMARK  Name = ../refined-set-2016/3uex/3uex_pocket.pdb
REMARK  245 active torsions:
REMARK  status: ('A' for Active; 'I' for Inactive)
REMARK    1  A    between atoms: _1  and  _3
REMARK    2  A    between atoms: _3  and  _4
REMARK    3  A    between atoms: _3  and  _6
REMARK    4  A    between atoms: _6  and  _7
REMARK    5  A    between atoms: _10  and  _12
REMARK    6  A    between atoms: _12  and  _13
REMARK    7  A    between atoms: _12  and  _15
REMARK    8  A    between atoms: _15  and  _16
REMARK    9  A    between atoms: _19  and  _21
REMARK   10  A    between atoms: _21  and  _22
REMARK   11  A    between atoms: _21  and  _24
REMARK   12  A    between atoms: _27  and  _29
REMARK   13  A    between atoms: _29  and  _30
REMARK   14  A    between atoms: _33  and  _35
REMARK   15  A    between atoms: _35  and  _36
REMARK   16  A    between atoms: _35  and  _38
REMARK   17  A    between atoms: _38  and  _39
REMARK   18  A    between atoms: _49  and  _51
REMARK   19  A    between atoms: _51  and  _52
REMARK   20  A    between atoms: _51  and  _54
REMARK   21  A    between atoms: _54  and  _55
REMARK   22  A    between atoms: _57  and  _59
REMARK   23  A    between atoms: _59  and  _60
REMARK   24  A    between atoms: _59  and  _62
REMARK   25  A    between atoms: _62  and  _63
REMARK   26  A    between atoms: _65  and  _67
REMARK   27  A    between atoms: _67  and  _68
REMARK   28  A    between atoms: _72  and  _73
REMARK   29  A    between atoms: _78  and  _80
REMARK   30  A    between atoms: _80  and  _81
REMARK   31  A    between atoms: _80  and  _83
REMARK   32  A    between atoms: _83  and  _84
REMARK   33  A    between atoms: _87  and  _89
REMARK   34  A    between atoms: _89  and  _90
REMARK   35  A    between atoms: _89  and  _92
REMARK   36  A    between atoms: _92  and  _93
REMARK   37  A    between atoms: _93  and  _94
REMARK   38  A    between atoms: _94  and  _95
REMARK   39  A    between atoms: _104  and  _106
REMARK   40  A    between atoms: _106  and  _107
REMARK   41  A    between atoms: _106  and  _109
REMARK   42  A    between atoms: _112  and  _114
REMARK   43  A    between atoms: _114  and  _115
REMARK   44  A    between atoms: _114  and  _117
REMARK   45  A    between atoms: _117  and  _118
REMARK   46  A    between atoms: _123  and  _124
REMARK   47  A    between atoms: _126  and  _128
REMARK   48  A    between atoms: _128  and  _129
REMARK   49  A    between atoms: _128  and  _131
REMARK   50  A    between atoms: _134  and  _136
REMARK   51  A    between atoms: _136  and  _137
REMARK   52  A    between atoms: _136  and  _139
REMARK   53  A    between atoms: _139  and  _140
REMARK   54  A    between atoms: _140  and  _141
REMARK   55  A    between atoms: _144  and  _146
REMARK   56  A    between atoms: _146  and  _147
REMARK   57  A    between atoms: _146  and  _149
REMARK   58  A    between atoms: _149  and  _150
REMARK   59  A    between atoms: _150  and  _151
REMARK   60  A    between atoms: _154  and  _156
REMARK   61  A    between atoms: _156  and  _157
REMARK   62  A    between atoms: _156  and  _159
REMARK   63  A    between atoms: _159  and  _160
REMARK   64  A    between atoms: _163  and  _165
REMARK   65  A    between atoms: _165  and  _166
REMARK   66  A    between atoms: _165  and  _168
REMARK   67  A    between atoms: _168  and  _169
REMARK   68  A    between atoms: _169  and  _170
REMARK   69  A    between atoms: _170  and  _171
REMARK   70  A    between atoms: _171  and  _172
REMARK   71  A    between atoms: _177  and  _178
REMARK   72  A    between atoms: _183  and  _185
REMARK   73  A    between atoms: _185  and  _186
REMARK   74  A    between atoms: _188  and  _190
REMARK   75  A    between atoms: _190  and  _191
REMARK   76  A    between atoms: _190  and  _193
REMARK   77  A    between atoms: _193  and  _194
REMARK   78  A    between atoms: _197  and  _199
REMARK   79  A    between atoms: _199  and  _200
REMARK   80  A    between atoms: _199  and  _202
REMARK   81  A    between atoms: _202  and  _203
REMARK   82  A    between atoms: _206  and  _208
REMARK   83  A    between atoms: _208  and  _209
REMARK   84  A    between atoms: _208  and  _211
REMARK   85  A    between atoms: _211  and  _212
REMARK   86  A    between atoms: _212  and  _213
REMARK   87  A    between atoms: _216  and  _218
REMARK   88  A    between atoms: _218  and  _219
REMARK   89  A    between atoms: _218  and  _221
REMARK   90  A    between atoms: _221  and  _222
REMARK   91  A    between atoms: _225  and  _227
REMARK   92  A    between atoms: _227  and  _228
REMARK   93  A    between atoms: _227  and  _230
REMARK   94  A    between atoms: _230  and  _231
REMARK   95  A    between atoms: _234  and  _236
REMARK   96  A    between atoms: _236  and  _237
REMARK   97  A    between atoms: _236  and  _239
REMARK   98  A    between atoms: _239  and  _240
REMARK   99  A    between atoms: _243  and  _245
REMARK  100  A    between atoms: _245  and  _246
REMARK  101  A    between atoms: _245  and  _248
REMARK  102  A    between atoms: _248  and  _249
REMARK  103  A    between atoms: _249  and  _250
REMARK  104  A    between atoms: _255  and  _257
REMARK  105  A    between atoms: _257  and  _258
REMARK  106  A    between atoms: _257  and  _260
REMARK  107  A    between atoms: _260  and  _261
REMARK  108  A    between atoms: _261  and  _262
REMARK  109  A    between atoms: _262  and  _263
REMARK  110  A    between atoms: _263  and  _264
REMARK  111  A    between atoms: _268  and  _270
REMARK  112  A    between atoms: _270  and  _271
REMARK  113  A    between atoms: _270  and  _273
REMARK  114  A    between atoms: _273  and  _274
REMARK  115  A    between atoms: _284  and  _286
REMARK  116  A    between atoms: _286  and  _287
REMARK  117  A    between atoms: _286  and  _289
REMARK  118  A    between atoms: _289  and  _290
REMARK  119  A    between atoms: _290  and  _291
REMARK  120  A    between atoms: _294  and  _296
REMARK  121  A    between atoms: _296  and  _297
REMARK  122  A    between atoms: _300  and  _302
REMARK  123  A    between atoms: _302  and  _303
REMARK  124  A    between atoms: _302  and  _305
REMARK  125  A    between atoms: _305  and  _306
REMARK  126  A    between atoms: _306  and  _307
REMARK  127  A    between atoms: _307  and  _308
REMARK  128  A    between atoms: _308  and  _309
REMARK  129  A    between atoms: _313  and  _315
REMARK  130  A    between atoms: _315  and  _316
REMARK  131  A    between atoms: _315  and  _318
REMARK  132  A    between atoms: _318  and  _319
REMARK  133  A    between atoms: _319  and  _320
REMARK  134  A    between atoms: _320  and  _321
REMARK  135  A    between atoms: _321  and  _322
REMARK  136  A    between atoms: _326  and  _328
REMARK  137  A    between atoms: _328  and  _329
REMARK  138  A    between atoms: _328  and  _331
REMARK  139  A    between atoms: _331  and  _332
REMARK  140  A    between atoms: _335  and  _337
REMARK  141  A    between atoms: _337  and  _338
REMARK  142  A    between atoms: _341  and  _343
REMARK  143  A    between atoms: _343  and  _344
REMARK  144  A    between atoms: _343  and  _346
REMARK  145  A    between atoms: _346  and  _347
REMARK  146  A    between atoms: _347  and  _348
REMARK  147  A    between atoms: _348  and  _349
REMARK  148  A    between atoms: _349  and  _350
REMARK  149  A    between atoms: _355  and  _356
REMARK  150  A    between atoms: _361  and  _363
REMARK  151  A    between atoms: _363  and  _364
REMARK  152  A    between atoms: _367  and  _369
REMARK  153  A    between atoms: _369  and  _370
REMARK  154  A    between atoms: _369  and  _372
REMARK  155  A    between atoms: _375  and  _377
REMARK  156  A    between atoms: _377  and  _378
REMARK  157  A    between atoms: _377  and  _380
REMARK  158  A    between atoms: _380  and  _381
REMARK  159  A    between atoms: _387  and  _389
REMARK  160  A    between atoms: _389  and  _390
REMARK  161  A    between atoms: _389  and  _392
REMARK  162  A    between atoms: _392  and  _393
REMARK  163  A    between atoms: _396  and  _398
REMARK  164  A    between atoms: _398  and  _399
REMARK  165  A    between atoms: _398  and  _401
REMARK  166  A    between atoms: _401  and  _402
REMARK  167  A    between atoms: _405  and  _407
REMARK  168  A    between atoms: _407  and  _408
REMARK  169  A    between atoms: _407  and  _410
REMARK  170  A    between atoms: _410  and  _411
REMARK  171  A    between atoms: _414  and  _416
REMARK  172  A    between atoms: _416  and  _417
REMARK  173  A    between atoms: _416  and  _419
REMARK  174  A    between atoms: _419  and  _420
REMARK  175  A    between atoms: _425  and  _427
REMARK  176  A    between atoms: _427  and  _428
REMARK  177  A    between atoms: _427  and  _430
REMARK  178  A    between atoms: _430  and  _431
REMARK  179  A    between atoms: _431  and  _432
REMARK  180  A    between atoms: _432  and  _433
REMARK  181  A    between atoms: _433  and  _434
REMARK  182  A    between atoms: _438  and  _440
REMARK  183  A    between atoms: _440  and  _441
REMARK  184  A    between atoms: _440  and  _443
REMARK  185  A    between atoms: _446  and  _448
REMARK  186  A    between atoms: _448  and  _449
REMARK  187  A    between atoms: _448  and  _451
REMARK  188  A    between atoms: _451  and  _452
REMARK  189  A    between atoms: _455  and  _457
REMARK  190  A    between atoms: _457  and  _458
REMARK  191  A    between atoms: _457  and  _460
REMARK  192  A    between atoms: _463  and  _465
REMARK  193  A    between atoms: _465  and  _466
REMARK  194  A    between atoms: _465  and  _468
REMARK  195  A    between atoms: _468  and  _469
REMARK  196  A    between atoms: _472  and  _474
REMARK  197  A    between atoms: _474  and  _475
REMARK  198  A    between atoms: _474  and  _477
REMARK  199  A    between atoms: _477  and  _478
REMARK  200  A    between atoms: _481  and  _483
REMARK  201  A    between atoms: _483  and  _484
REMARK  202  A    between atoms: _483  and  _486
REMARK  203  A    between atoms: _486  and  _487
REMARK  204  A    between atoms: _490  and  _492
REMARK  205  A    between atoms: _492  and  _493
REMARK  206  A    between atoms: _492  and  _495
REMARK  207  A    between atoms: _495  and  _496
REMARK  208  A    between atoms: _499  and  _501
REMARK  209  A    between atoms: _501  and  _502
REMARK  210  A    between atoms: _501  and  _504
REMARK  211  A    between atoms: _504  and  _505
REMARK  212  A    between atoms: _508  and  _510
REMARK  213  A    between atoms: _510  and  _511
REMARK  214  A    between atoms: _510  and  _513
REMARK  215  A    between atoms: _513  and  _514
REMARK  216  A    between atoms: _520  and  _522
REMARK  217  A    between atoms: _522  and  _523
REMARK  218  A    between atoms: _522  and  _525
REMARK  219  A    between atoms: _525  and  _526
REMARK  220  A    between atoms: _526  and  _558
REMARK  221  A    between atoms: _527  and  _529
REMARK  222  A    between atoms: _529  and  _530
REMARK  223  A    between atoms: _529  and  _532
REMARK  224  A    between atoms: _532  and  _533
REMARK  225  A    between atoms: _533  and  _534
REMARK  226  A    between atoms: _536  and  _538
REMARK  227  A    between atoms: _538  and  _539
REMARK  228  A    between atoms: _538  and  _541
REMARK  229  A    between atoms: _541  and  _542
REMARK  230  A    between atoms: _542  and  _543
REMARK  231  A    between atoms: _546  and  _548
REMARK  232  A    between atoms: _548  and  _549
REMARK  233  A    between atoms: _552  and  _554
REMARK  234  A    between atoms: _554  and  _555
REMARK  235  A    between atoms: _554  and  _557
REMARK  236  A    between atoms: _557  and  _558
REMARK  237  A    between atoms: _559  and  _561
REMARK  238  A    between atoms: _561  and  _562
REMARK  239  A    between atoms: _561  and  _564
REMARK  240  A    between atoms: _564  and  _565
REMARK  241  A    between atoms: _565  and  _566
REMARK  242  A    between atoms: _571  and  _573
REMARK  243  A    between atoms: _573  and  _574
REMARK  244  A    between atoms: _573  and  _576
REMARK  245  A    between atoms: _576  and  _577
REMARK                            x       y       z     vdW  Elec       q    Type
REMARK                         _______ _______ _______ _____ _____    ______ ____
ROOT
ATOM      1  O   HOH     1      -8.407  20.586   8.492  0.00  0.00    +0.000 OA
ENDROOT
TORSDOF 0
REMARK  Name = ../refined-set-2016/3uex/3uex_pocket.pdb
REMARK  245 active torsions:
REMARK  status: ('A' for Active; 'I' for Inactive)
REMARK    1  A    between atoms: _1  and  _3
REMARK    2  A    between atoms: _3  and  _4
REMARK    3  A    between atoms: _3  and  _6
REMARK    4  A    between atoms: _6  and  _7
REMARK    5  A    between atoms: _10  and  _12
REMARK    6  A    between atoms: _12  and  _13
REMARK    7  A    between atoms: _12  and  _15
REMARK    8  A    between atoms: _15  and  _16
REMARK    9  A    between atoms: _19  and  _21
REMARK   10  A    between atoms: _21  and  _22
REMARK   11  A    between atoms: _21  and  _24
REMARK   12  A    between atoms: _27  and  _29
REMARK   13  A    between atoms: _29  and  _30
REMARK   14  A    between atoms: _33  and  _35
REMARK   15  A    between atoms: _35  and  _36
REMARK   16  A    between atoms: _35  and  _38
REMARK   17  A    between atoms: _38  and  _39
REMARK   18  A    between atoms: _49  and  _51
REMARK   19  A    between atoms: _51  and  _52
REMARK   20  A    between atoms: _51  and  _54
REMARK   21  A    between atoms: _54  and  _55
REMARK   22  A    between atoms: _57  and  _59
REMARK   23  A    between atoms: _59  and  _60
REMARK   24  A    between atoms: _59  and  _62
REMARK   25  A    between atoms: _62  and  _63
REMARK   26  A    between atoms: _65  and  _67
REMARK   27  A    between atoms: _67  and  _68
REMARK   28  A    between atoms: _72  and  _73
REMARK   29  A    between atoms: _78  and  _80
REMARK   30  A    between atoms: _80  and  _81
REMARK   31  A    between atoms: _80  and  _83
REMARK   32  A    between atoms: _83  and  _84
REMARK   33  A    between atoms: _87  and  _89
REMARK   34  A    between atoms: _89  and  _90
REMARK   35  A    between atoms: _89  and  _92
REMARK   36  A    between atoms: _92  and  _93
REMARK   37  A    between atoms: _93  and  _94
REMARK   38  A    between atoms: _94  and  _95
REMARK   39  A    between atoms: _104  and  _106
REMARK   40  A    between atoms: _106  and  _107
REMARK   41  A    between atoms: _106  and  _109
REMARK   42  A    between atoms: _112  and  _114
REMARK   43  A    between atoms: _114  and  _115
REMARK   44  A    between atoms: _114  and  _117
REMARK   45  A    between atoms: _117  and  _118
REMARK   46  A    between atoms: _123  and  _124
REMARK   47  A    between atoms: _126  and  _128
REMARK   48  A    between atoms: _128  and  _129
REMARK   49  A    between atoms: _128  and  _131
REMARK   50  A    between atoms: _134  and  _136
REMARK   51  A    between atoms: _136  and  _137
REMARK   52  A    between atoms: _136  and  _139
REMARK   53  A    between atoms: _139  and  _140
REMARK   54  A    between atoms: _140  and  _141
REMARK   55  A    between atoms: _144  and  _146
REMARK   56  A    between atoms: _146  and  _147
REMARK   57  A    between atoms: _146  and  _149
REMARK   58  A    between atoms: _149  and  _150
REMARK   59  A    between atoms: _150  and  _151
REMARK   60  A    between atoms: _154  and  _156
REMARK   61  A    between atoms: _156  and  _157
REMARK   62  A    between atoms: _156  and  _159
REMARK   63  A    between atoms: _159  and  _160
REMARK   64  A    between atoms: _163  and  _165
REMARK   65  A    between atoms: _165  and  _166
REMARK   66  A    between atoms: _165  and  _168
REMARK   67  A    between atoms: _168  and  _169
REMARK   68  A    between atoms: _169  and  _170
REMARK   69  A    between atoms: _170  and  _171
REMARK   70  A    between atoms: _171  and  _172
REMARK   71  A    between atoms: _177  and  _178
REMARK   72  A    between atoms: _183  and  _185
REMARK   73  A    between atoms: _185  and  _186
REMARK   74  A    between atoms: _188  and  _190
REMARK   75  A    between atoms: _190  and  _191
REMARK   76  A    between atoms: _190  and  _193
REMARK   77  A    between atoms: _193  and  _194
REMARK   78  A    between atoms: _197  and  _199
REMARK   79  A    between atoms: _199  and  _200
REMARK   80  A    between atoms: _199  and  _202
REMARK   81  A    between atoms: _202  and  _203
REMARK   82  A    between atoms: _206  and  _208
REMARK   83  A    between atoms: _208  and  _209
REMARK   84  A    between atoms: _208  and  _211
REMARK   85  A    between atoms: _211  and  _212
REMARK   86  A    between atoms: _212  and  _213
REMARK   87  A    between atoms: _216  and  _218
REMARK   88  A    between atoms: _218  and  _219
REMARK   89  A    between atoms: _218  and  _221
REMARK   90  A    between atoms: _221  and  _222
REMARK   91  A    between atoms: _225  and  _227
REMARK   92  A    between atoms: _227  and  _228
REMARK   93  A    between atoms: _227  and  _230
REMARK   94  A    between atoms: _230  and  _231
REMARK   95  A    between atoms: _234  and  _236
REMARK   96  A    between atoms: _236  and  _237
REMARK   97  A    between atoms: _236  and  _239
REMARK   98  A    between atoms: _239  and  _240
REMARK   99  A    between atoms: _243  and  _245
REMARK  100  A    between atoms: _245  and  _246
REMARK  101  A    between atoms: _245  and  _248
REMARK  102  A    between atoms: _248  and  _249
REMARK  103  A    between atoms: _249  and  _250
REMARK  104  A    between atoms: _255  and  _257
REMARK  105  A    between atoms: _257  and  _258
REMARK  106  A    between atoms: _257  and  _260
REMARK  107  A    between atoms: _260  and  _261
REMARK  108  A    between atoms: _261  and  _262
REMARK  109  A    between atoms: _262  and  _263
REMARK  110  A    between atoms: _263  and  _264
REMARK  111  A    between atoms: _268  and  _270
REMARK  112  A    between atoms: _270  and  _271
REMARK  113  A    between atoms: _270  and  _273
REMARK  114  A    between atoms: _273  and  _274
REMARK  115  A    between atoms: _284  and  _286
REMARK  116  A    between atoms: _286  and  _287
REMARK  117  A    between atoms: _286  and  _289
REMARK  118  A    between atoms: _289  and  _290
REMARK  119  A    between atoms: _290  and  _291
REMARK  120  A    between atoms: _294  and  _296
REMARK  121  A    between atoms: _296  and  _297
REMARK  122  A    between atoms: _300  and  _302
REMARK  123  A    between atoms: _302  and  _303
REMARK  124  A    between atoms: _302  and  _305
REMARK  125  A    between atoms: _305  and  _306
REMARK  126  A    between atoms: _306  and  _307
REMARK  127  A    between atoms: _307  and  _308
REMARK  128  A    between atoms: _308  and  _309
REMARK  129  A    between atoms: _313  and  _315
REMARK  130  A    between atoms: _315  and  _316
REMARK  131  A    between atoms: _315  and  _318
REMARK  132  A    between atoms: _318  and  _319
REMARK  133  A    between atoms: _319  and  _320
REMARK  134  A    between atoms: _320  and  _321
REMARK  135  A    between atoms: _321  and  _322
REMARK  136  A    between atoms: _326  and  _328
REMARK  137  A    between atoms: _328  and  _329
REMARK  138  A    between atoms: _328  and  _331
REMARK  139  A    between atoms: _331  and  _332
REMARK  140  A    between atoms: _335  and  _337
REMARK  141  A    between atoms: _337  and  _338
REMARK  142  A    between atoms: _341  and  _343
REMARK  143  A    between atoms: _343  and  _344
REMARK  144  A    between atoms: _343  and  _346
REMARK  145  A    between atoms: _346  and  _347
REMARK  146  A    between atoms: _347  and  _348
REMARK  147  A    between atoms: _348  and  _349
REMARK  148  A    between atoms: _349  and  _350
REMARK  149  A    between atoms: _355  and  _356
REMARK  150  A    between atoms: _361  and  _363
REMARK  151  A    between atoms: _363  and  _364
REMARK  152  A    between atoms: _367  and  _369
REMARK  153  A    between atoms: _369  and  _370
REMARK  154  A    between atoms: _369  and  _372
REMARK  155  A    between atoms: _375  and  _377
REMARK  156  A    between atoms: _377  and  _378
REMARK  157  A    between atoms: _377  and  _380
REMARK  158  A    between atoms: _380  and  _381
REMARK  159  A    between atoms: _387  and  _389
REMARK  160  A    between atoms: _389  and  _390
REMARK  161  A    between atoms: _389  and  _392
REMARK  162  A    between atoms: _392  and  _393
REMARK  163  A    between atoms: _396  and  _398
REMARK  164  A    between atoms: _398  and  _399
REMARK  165  A    between atoms: _398  and  _401
REMARK  166  A    between atoms: _401  and  _402
REMARK  167  A    between atoms: _405  and  _407
REMARK  168  A    between atoms: _407  and  _408
REMARK  169  A    between atoms: _407  and  _410
REMARK  170  A    between atoms: _410  and  _411
REMARK  171  A    between atoms: _414  and  _416
REMARK  172  A    between atoms: _416  and  _417
REMARK  173  A    between atoms: _416  and  _419
REMARK  174  A    between atoms: _419  and  _420
REMARK  175  A    between atoms: _425  and  _427
REMARK  176  A    between atoms: _427  and  _428
REMARK  177  A    between atoms: _427  and  _430
REMARK  178  A    between atoms: _430  and  _431
REMARK  179  A    between atoms: _431  and  _432
REMARK  180  A    between atoms: _432  and  _433
REMARK  181  A    between atoms: _433  and  _434
REMARK  182  A    between atoms: _438  and  _440
REMARK  183  A    between atoms: _440  and  _441
REMARK  184  A    between atoms: _440  and  _443
REMARK  185  A    between atoms: _446  and  _448
REMARK  186  A    between atoms: _448  and  _449
REMARK  187  A    between atoms: _448  and  _451
REMARK  188  A    between atoms: _451  and  _452
REMARK  189  A    between atoms: _455  and  _457
REMARK  190  A    between atoms: _457  and  _458
REMARK  191  A    between atoms: _457  and  _460
REMARK  192  A    between atoms: _463  and  _465
REMARK  193  A    between atoms: _465  and  _466
REMARK  194  A    between atoms: _465  and  _468
REMARK  195  A    between atoms: _468  and  _469
REMARK  196  A    between atoms: _472  and  _474
REMARK  197  A    between atoms: _474  and  _475
REMARK  198  A    between atoms: _474  and  _477
REMARK  199  A    between atoms: _477  and  _478
REMARK  200  A    between atoms: _481  and  _483
REMARK  201  A    between atoms: _483  and  _484
REMARK  202  A    between atoms: _483  and  _486
REMARK  203  A    between atoms: _486  and  _487
REMARK  204  A    between atoms: _490  and  _492
REMARK  205  A    between atoms: _492  and  _493
REMARK  206  A    between atoms: _492  and  _495
REMARK  207  A    between atoms: _495  and  _496
REMARK  208  A    between atoms: _499  and  _501
REMARK  209  A    between atoms: _501  and  _502
REMARK  210  A    between atoms: _501  and  _504
REMARK  211  A    between atoms: _504  and  _505
REMARK  212  A    between atoms: _508  and  _510
REMARK  213  A    between atoms: _510  and  _511
REMARK  214  A    between atoms: _510  and  _513
REMARK  215  A    between atoms: _513  and  _514
REMARK  216  A    between atoms: _520  and  _522
REMARK  217  A    between atoms: _522  and  _523
REMARK  218  A    between atoms: _522  and  _525
REMARK  219  A    between atoms: _525  and  _526
REMARK  220  A    between atoms: _526  and  _558
REMARK  221  A    between atoms: _527  and  _529
REMARK  222  A    between atoms: _529  and  _530
REMARK  223  A    between atoms: _529  and  _532
REMARK  224  A    between atoms: _532  and  _533
REMARK  225  A    between atoms: _533  and  _534
REMARK  226  A    between atoms: _536  and  _538
REMARK  227  A    between atoms: _538  and  _539
REMARK  228  A    between atoms: _538  and  _541
REMARK  229  A    between atoms: _541  and  _542
REMARK  230  A    between atoms: _542  and  _543
REMARK  231  A    between atoms: _546  and  _548
REMARK  232  A    between atoms: _548  and  _549
REMARK  233  A    between atoms: _552  and  _554
REMARK  234  A    between atoms: _554  and  _555
REMARK  235  A    between atoms: _554  and  _557
REMARK  236  A    between atoms: _557  and  _558
REMARK  237  A    between atoms: _559  and  _561
REMARK  238  A    between atoms: _561  and  _562
REMARK  239  A    between atoms: _561  and  _564
REMARK  240  A    between atoms: _564  and  _565
REMARK  241  A    between atoms: _565  and  _566
REMARK  242  A    between atoms: _571  and  _573
REMARK  243  A    between atoms: _573  and  _574
REMARK  244  A    between atoms: _573  and  _576
REMARK  245  A    between atoms: _576  and  _577
REMARK                            x       y       z     vdW  Elec       q    Type
REMARK                         _______ _______ _______ _____ _____    ______ ____
ROOT
ATOM      1  O   HOH     1      -4.336  11.429  26.719  0.00  0.00    +0.000 OA
ENDROOT
TORSDOF 0
REMARK  Name = ../refined-set-2016/3uex/3uex_pocket.pdb
REMARK  245 active torsions:
REMARK  status: ('A' for Active; 'I' for Inactive)
REMARK    1  A    between atoms: _1  and  _3
REMARK    2  A    between atoms: _3  and  _4
REMARK    3  A    between atoms: _3  and  _6
REMARK    4  A    between atoms: _6  and  _7
REMARK    5  A    between atoms: _10  and  _12
REMARK    6  A    between atoms: _12  and  _13
REMARK    7  A    between atoms: _12  and  _15
REMARK    8  A    between atoms: _15  and  _16
REMARK    9  A    between atoms: _19  and  _21
REMARK   10  A    between atoms: _21  and  _22
REMARK   11  A    between atoms: _21  and  _24
REMARK   12  A    between atoms: _27  and  _29
REMARK   13  A    between atoms: _29  and  _30
REMARK   14  A    between atoms: _33  and  _35
REMARK   15  A    between atoms: _35  and  _36
REMARK   16  A    between atoms: _35  and  _38
REMARK   17  A    between atoms: _38  and  _39
REMARK   18  A    between atoms: _49  and  _51
REMARK   19  A    between atoms: _51  and  _52
REMARK   20  A    between atoms: _51  and  _54
REMARK   21  A    between atoms: _54  and  _55
REMARK   22  A    between atoms: _57  and  _59
REMARK   23  A    between atoms: _59  and  _60
REMARK   24  A    between atoms: _59  and  _62
REMARK   25  A    between atoms: _62  and  _63
REMARK   26  A    between atoms: _65  and  _67
REMARK   27  A    between atoms: _67  and  _68
REMARK   28  A    between atoms: _72  and  _73
REMARK   29  A    between atoms: _78  and  _80
REMARK   30  A    between atoms: _80  and  _81
REMARK   31  A    between atoms: _80  and  _83
REMARK   32  A    between atoms: _83  and  _84
REMARK   33  A    between atoms: _87  and  _89
REMARK   34  A    between atoms: _89  and  _90
REMARK   35  A    between atoms: _89  and  _92
REMARK   36  A    between atoms: _92  and  _93
REMARK   37  A    between atoms: _93  and  _94
REMARK   38  A    between atoms: _94  and  _95
REMARK   39  A    between atoms: _104  and  _106
REMARK   40  A    between atoms: _106  and  _107
REMARK   41  A    between atoms: _106  and  _109
REMARK   42  A    between atoms: _112  and  _114
REMARK   43  A    between atoms: _114  and  _115
REMARK   44  A    between atoms: _114  and  _117
REMARK   45  A    between atoms: _117  and  _118
REMARK   46  A    between atoms: _123  and  _124
REMARK   47  A    between atoms: _126  and  _128
REMARK   48  A    between atoms: _128  and  _129
REMARK   49  A    between atoms: _128  and  _131
REMARK   50  A    between atoms: _134  and  _136
REMARK   51  A    between atoms: _136  and  _137
REMARK   52  A    between atoms: _136  and  _139
REMARK   53  A    between atoms: _139  and  _140
REMARK   54  A    between atoms: _140  and  _141
REMARK   55  A    between atoms: _144  and  _146
REMARK   56  A    between atoms: _146  and  _147
REMARK   57  A    between atoms: _146  and  _149
REMARK   58  A    between atoms: _149  and  _150
REMARK   59  A    between atoms: _150  and  _151
REMARK   60  A    between atoms: _154  and  _156
REMARK   61  A    between atoms: _156  and  _157
REMARK   62  A    between atoms: _156  and  _159
REMARK   63  A    between atoms: _159  and  _160
REMARK   64  A    between atoms: _163  and  _165
REMARK   65  A    between atoms: _165  and  _166
REMARK   66  A    between atoms: _165  and  _168
REMARK   67  A    between atoms: _168  and  _169
REMARK   68  A    between atoms: _169  and  _170
REMARK   69  A    between atoms: _170  and  _171
REMARK   70  A    between atoms: _171  and  _172
REMARK   71  A    between atoms: _177  and  _178
REMARK   72  A    between atoms: _183  and  _185
REMARK   73  A    between atoms: _185  and  _186
REMARK   74  A    between atoms: _188  and  _190
REMARK   75  A    between atoms: _190  and  _191
REMARK   76  A    between atoms: _190  and  _193
REMARK   77  A    between atoms: _193  and  _194
REMARK   78  A    between atoms: _197  and  _199
REMARK   79  A    between atoms: _199  and  _200
REMARK   80  A    between atoms: _199  and  _202
REMARK   81  A    between atoms: _202  and  _203
REMARK   82  A    between atoms: _206  and  _208
REMARK   83  A    between atoms: _208  and  _209
REMARK   84  A    between atoms: _208  and  _211
REMARK   85  A    between atoms: _211  and  _212
REMARK   86  A    between atoms: _212  and  _213
REMARK   87  A    between atoms: _216  and  _218
REMARK   88  A    between atoms: _218  and  _219
REMARK   89  A    between atoms: _218  and  _221
REMARK   90  A    between atoms: _221  and  _222
REMARK   91  A    between atoms: _225  and  _227
REMARK   92  A    between atoms: _227  and  _228
REMARK   93  A    between atoms: _227  and  _230
REMARK   94  A    between atoms: _230  and  _231
REMARK   95  A    between atoms: _234  and  _236
REMARK   96  A    between atoms: _236  and  _237
REMARK   97  A    between atoms: _236  and  _239
REMARK   98  A    between atoms: _239  and  _240
REMARK   99  A    between atoms: _243  and  _245
REMARK  100  A    between atoms: _245  and  _246
REMARK  101  A    between atoms: _245  and  _248
REMARK  102  A    between atoms: _248  and  _249
REMARK  103  A    between atoms: _249  and  _250
REMARK  104  A    between atoms: _255  and  _257
REMARK  105  A    between atoms: _257  and  _258
REMARK  106  A    between atoms: _257  and  _260
REMARK  107  A    between atoms: _260  and  _261
REMARK  108  A    between atoms: _261  and  _262
REMARK  109  A    between atoms: _262  and  _263
REMARK  110  A    between atoms: _263  and  _264
REMARK  111  A    between atoms: _268  and  _270
REMARK  112  A    between atoms: _270  and  _271
REMARK  113  A    between atoms: _270  and  _273
REMARK  114  A    between atoms: _273  and  _274
REMARK  115  A    between atoms: _284  and  _286
REMARK  116  A    between atoms: _286  and  _287
REMARK  117  A    between atoms: _286  and  _289
REMARK  118  A    between atoms: _289  and  _290
REMARK  119  A    between atoms: _290  and  _291
REMARK  120  A    between atoms: _294  and  _296
REMARK  121  A    between atoms: _296  and  _297
REMARK  122  A    between atoms: _300  and  _302
REMARK  123  A    between atoms: _302  and  _303
REMARK  124  A    between atoms: _302  and  _305
REMARK  125  A    between atoms: _305  and  _306
REMARK  126  A    between atoms: _306  and  _307
REMARK  127  A    between atoms: _307  and  _308
REMARK  128  A    between atoms: _308  and  _309
REMARK  129  A    between atoms: _313  and  _315
REMARK  130  A    between atoms: _315  and  _316
REMARK  131  A    between atoms: _315  and  _318
REMARK  132  A    between atoms: _318  and  _319
REMARK  133  A    between atoms: _319  and  _320
REMARK  134  A    between atoms: _320  and  _321
REMARK  135  A    between atoms: _321  and  _322
REMARK  136  A    between atoms: _326  and  _328
REMARK  137  A    between atoms: _328  and  _329
REMARK  138  A    between atoms: _328  and  _331
REMARK  139  A    between atoms: _331  and  _332
REMARK  140  A    between atoms: _335  and  _337
REMARK  141  A    between atoms: _337  and  _338
REMARK  142  A    between atoms: _341  and  _343
REMARK  143  A    between atoms: _343  and  _344
REMARK  144  A    between atoms: _343  and  _346
REMARK  145  A    between atoms: _346  and  _347
REMARK  146  A    between atoms: _347  and  _348
REMARK  147  A    between atoms: _348  and  _349
REMARK  148  A    between atoms: _349  and  _350
REMARK  149  A    between atoms: _355  and  _356
REMARK  150  A    between atoms: _361  and  _363
REMARK  151  A    between atoms: _363  and  _364
REMARK  152  A    between atoms: _367  and  _369
REMARK  153  A    between atoms: _369  and  _370
REMARK  154  A    between atoms: _369  and  _372
REMARK  155  A    between atoms: _375  and  _377
REMARK  156  A    between atoms: _377  and  _378
REMARK  157  A    between atoms: _377  and  _380
REMARK  158  A    between atoms: _380  and  _381
REMARK  159  A    between atoms: _387  and  _389
REMARK  160  A    between atoms: _389  and  _390
REMARK  161  A    between atoms: _389  and  _392
REMARK  162  A    between atoms: _392  and  _393
REMARK  163  A    between atoms: _396  and  _398
REMARK  164  A    between atoms: _398  and  _399
REMARK  165  A    between atoms: _398  and  _401
REMARK  166  A    between atoms: _401  and  _402
REMARK  167  A    between atoms: _405  and  _407
REMARK  168  A    between atoms: _407  and  _408
REMARK  169  A    between atoms: _407  and  _410
REMARK  170  A    between atoms: _410  and  _411
REMARK  171  A    between atoms: _414  and  _416
REMARK  172  A    between atoms: _416  and  _417
REMARK  173  A    between atoms: _416  and  _419
REMARK  174  A    between atoms: _419  and  _420
REMARK  175  A    between atoms: _425  and  _427
REMARK  176  A    between atoms: _427  and  _428
REMARK  177  A    between atoms: _427  and  _430
REMARK  178  A    between atoms: _430  and  _431
REMARK  179  A    between atoms: _431  and  _432
REMARK  180  A    between atoms: _432  and  _433
REMARK  181  A    between atoms: _433  and  _434
REMARK  182  A    between atoms: _438  and  _440
REMARK  183  A    between atoms: _440  and  _441
REMARK  184  A    between atoms: _440  and  _443
REMARK  185  A    between atoms: _446  and  _448
REMARK  186  A    between atoms: _448  and  _449
REMARK  187  A    between atoms: _448  and  _451
REMARK  188  A    between atoms: _451  and  _452
REMARK  189  A    between atoms: _455  and  _457
REMARK  190  A    between atoms: _457  and  _458
REMARK  191  A    between atoms: _457  and  _460
REMARK  192  A    between atoms: _463  and  _465
REMARK  193  A    between atoms: _465  and  _466
REMARK  194  A    between atoms: _465  and  _468
REMARK  195  A    between atoms: _468  and  _469
REMARK  196  A    between atoms: _472  and  _474
REMARK  197  A    between atoms: _474  and  _475
REMARK  198  A    between atoms: _474  and  _477
REMARK  199  A    between atoms: _477  and  _478
REMARK  200  A    between atoms: _481  and  _483
REMARK  201  A    between atoms: _483  and  _484
REMARK  202  A    between atoms: _483  and  _486
REMARK  203  A    between atoms: _486  and  _487
REMARK  204  A    between atoms: _490  and  _492
REMARK  205  A    between atoms: _492  and  _493
REMARK  206  A    between atoms: _492  and  _495
REMARK  207  A    between atoms: _495  and  _496
REMARK  208  A    between atoms: _499  and  _501
REMARK  209  A    between atoms: _501  and  _502
REMARK  210  A    between atoms: _501  and  _504
REMARK  211  A    between atoms: _504  and  _505
REMARK  212  A    between atoms: _508  and  _510
REMARK  213  A    between atoms: _510  and  _511
REMARK  214  A    between atoms: _510  and  _513
REMARK  215  A    between atoms: _513  and  _514
REMARK  216  A    between atoms: _520  and  _522
REMARK  217  A    between atoms: _522  and  _523
REMARK  218  A    between atoms: _522  and  _525
REMARK  219  A    between atoms: _525  and  _526
REMARK  220  A    between atoms: _526  and  _558
REMARK  221  A    between atoms: _527  and  _529
REMARK  222  A    between atoms: _529  and  _530
REMARK  223  A    between atoms: _529  and  _532
REMARK  224  A    between atoms: _532  and  _533
REMARK  225  A    between atoms: _533  and  _534
REMARK  226  A    between atoms: _536  and  _538
REMARK  227  A    between atoms: _538  and  _539
REMARK  228  A    between atoms: _538  and  _541
REMARK  229  A    between atoms: _541  and  _542
REMARK  230  A    between atoms: _542  and  _543
REMARK  231  A    between atoms: _546  and  _548
REMARK  232  A    between atoms: _548  and  _549
REMARK  233  A    between atoms: _552  and  _554
REMARK  234  A    between atoms: _554  and  _555
REMARK  235  A    between atoms: _554  and  _557
REMARK  236  A    between atoms: _557  and  _558
REMARK  237  A    between atoms: _559  and  _561
REMARK  238  A    between atoms: _561  and  _562
REMARK  239  A    between atoms: _561  and  _564
REMARK  240  A    between atoms: _564  and  _565
REMARK  241  A    between atoms: _565  and  _566
REMARK  242  A    between atoms: _571  and  _573
REMARK  243  A    between atoms: _573  and  _574
REMARK  244  A    between atoms: _573  and  _576
REMARK  245  A    between atoms: _576  and  _577
REMARK                            x       y       z     vdW  Elec       q    Type
REMARK                         _______ _______ _______ _____ _____    ______ ____
ROOT
ATOM      1  O   HOH     1      -1.199   2.929  17.115  0.00  0.00    +0.000 OA
ENDROOT
TORSDOF 0
