REMARK  Name = ../refined-set-2016/1sdu/1sdu_pocket.pdb
REMARK  239 active torsions:
REMARK  status: ('A' for Active; 'I' for Inactive)
REMARK    1  A    between atoms: _1  and  _3
REMARK    2  A    between atoms: _3  and  _4
REMARK    3  A    between atoms: _3  and  _6
REMARK    4  A    between atoms: _6  and  _7
REMARK    5  A    between atoms: _7  and  _8
REMARK    6  A    between atoms: _8  and  _9
REMARK    7  A    between atoms: _18  and  _20
REMARK    8  A    between atoms: _20  and  _21
REMARK    9  A    between atoms: _20  and  _23
REMARK   10  A    between atoms: _23  and  _24
REMARK   11  A    between atoms: _27  and  _29
REMARK   12  A    between atoms: _29  and  _30
REMARK   13  A    between atoms: _29  and  _32
REMARK   14  A    between atoms: _32  and  _33
REMARK   15  A    between atoms: _36  and  _38
REMARK   16  A    between atoms: _38  and  _39
REMARK   17  A    between atoms: _38  and  _41
REMARK   18  A    between atoms: _41  and  _42
REMARK   19  A    between atoms: _45  and  _47
REMARK   20  A    between atoms: _47  and  _48
REMARK   21  A    between atoms: _47  and  _50
REMARK   22  A    between atoms: _50  and  _51
REMARK   23  A    between atoms: _54  and  _56
REMARK   24  A    between atoms: _56  and  _57
REMARK   25  A    between atoms: _56  and  _59
REMARK   26  A    between atoms: _59  and  _60
REMARK   27  A    between atoms: _63  and  _65
REMARK   28  A    between atoms: _65  and  _66
REMARK   29  A    between atoms: _68  and  _70
REMARK   30  A    between atoms: _70  and  _71
REMARK   31  A    between atoms: _74  and  _76
REMARK   32  A    between atoms: _76  and  _77
REMARK   33  A    between atoms: _76  and  _79
REMARK   34  A    between atoms: _79  and  _80
REMARK   35  A    between atoms: _83  and  _85
REMARK   36  A    between atoms: _85  and  _86
REMARK   37  A    between atoms: _85  and  _88
REMARK   38  A    between atoms: _88  and  _89
REMARK   39  A    between atoms: _92  and  _94
REMARK   40  A    between atoms: _94  and  _95
REMARK   41  A    between atoms: _94  and  _97
REMARK   42  A    between atoms: _97  and  _98
REMARK   43  A    between atoms: _101  and  _103
REMARK   44  A    between atoms: _103  and  _104
REMARK   45  A    between atoms: _103  and  _106
REMARK   46  A    between atoms: _109  and  _111
REMARK   47  A    between atoms: _111  and  _112
REMARK   48  A    between atoms: _111  and  _114
REMARK   49  A    between atoms: _115  and  _116
REMARK   50  A    between atoms: _116  and  _117
REMARK   51  A    between atoms: _117  and  _118
REMARK   52  A    between atoms: _122  and  _124
REMARK   53  A    between atoms: _124  and  _125
REMARK   54  A    between atoms: _124  and  _127
REMARK   55  A    between atoms: _127  and  _128
REMARK   56  A    between atoms: _128  and  _129
REMARK   57  A    between atoms: _131  and  _133
REMARK   58  A    between atoms: _133  and  _134
REMARK   59  A    between atoms: _133  and  _136
REMARK   60  A    between atoms: _136  and  _137
REMARK   61  A    between atoms: _140  and  _142
REMARK   62  A    between atoms: _142  and  _143
REMARK   63  A    between atoms: _145  and  _147
REMARK   64  A    between atoms: _147  and  _148
REMARK   65  A    between atoms: _150  and  _152
REMARK   66  A    between atoms: _152  and  _153
REMARK   67  A    between atoms: _152  and  _155
REMARK   68  A    between atoms: _155  and  _156
REMARK   69  A    between atoms: _159  and  _161
REMARK   70  A    between atoms: _161  and  _162
REMARK   71  A    between atoms: _164  and  _166
REMARK   72  A    between atoms: _166  and  _167
REMARK   73  A    between atoms: _169  and  _171
REMARK   74  A    between atoms: _171  and  _172
REMARK   75  A    between atoms: _171  and  _174
REMARK   76  A    between atoms: _174  and  _175
REMARK   77  A    between atoms: _181  and  _183
REMARK   78  A    between atoms: _183  and  _184
REMARK   79  A    between atoms: _183  and  _186
REMARK   80  A    between atoms: _186  and  _187
REMARK   81  A    between atoms: _190  and  _192
REMARK   82  A    between atoms: _192  and  _193
REMARK   83  A    between atoms: _192  and  _195
REMARK   84  A    between atoms: _198  and  _200
REMARK   85  A    between atoms: _200  and  _201
REMARK   86  A    between atoms: _200  and  _203
REMARK   87  A    between atoms: _203  and  _204
REMARK   88  A    between atoms: _207  and  _209
REMARK   89  A    between atoms: _209  and  _210
REMARK   90  A    between atoms: _209  and  _212
REMARK   91  A    between atoms: _212  and  _213
REMARK   92  A    between atoms: _217  and  _218
REMARK   93  A    between atoms: _223  and  _225
REMARK   94  A    between atoms: _225  and  _226
REMARK   95  A    between atoms: _225  and  _228
REMARK   96  A    between atoms: _231  and  _233
REMARK   97  A    between atoms: _233  and  _234
REMARK   98  A    between atoms: _233  and  _236
REMARK   99  A    between atoms: _236  and  _237
REMARK  100  A    between atoms: _242  and  _244
REMARK  101  A    between atoms: _244  and  _245
REMARK  102  A    between atoms: _244  and  _247
REMARK  103  A    between atoms: _247  and  _248
REMARK  104  A    between atoms: _251  and  _253
REMARK  105  A    between atoms: _253  and  _254
REMARK  106  A    between atoms: _253  and  _256
REMARK  107  A    between atoms: _256  and  _257
REMARK  108  A    between atoms: _260  and  _262
REMARK  109  A    between atoms: _262  and  _263
REMARK  110  A    between atoms: _265  and  _267
REMARK  111  A    between atoms: _267  and  _268
REMARK  112  A    between atoms: _267  and  _270
REMARK  113  A    between atoms: _270  and  _271
REMARK  114  A    between atoms: _271  and  _272
REMARK  115  A    between atoms: _272  and  _273
REMARK  116  A    between atoms: _282  and  _284
REMARK  117  A    between atoms: _284  and  _285
REMARK  118  A    between atoms: _284  and  _287
REMARK  119  A    between atoms: _287  and  _288
REMARK  120  A    between atoms: _293  and  _295
REMARK  121  A    between atoms: _295  and  _296
REMARK  122  A    between atoms: _295  and  _298
REMARK  123  A    between atoms: _298  and  _299
REMARK  124  A    between atoms: _299  and  _300
REMARK  125  A    between atoms: _300  and  _301
REMARK  126  A    between atoms: _310  and  _312
REMARK  127  A    between atoms: _312  and  _313
REMARK  128  A    between atoms: _312  and  _315
REMARK  129  A    between atoms: _315  and  _316
REMARK  130  A    between atoms: _319  and  _321
REMARK  131  A    between atoms: _321  and  _322
REMARK  132  A    between atoms: _321  and  _324
REMARK  133  A    between atoms: _324  and  _325
REMARK  134  A    between atoms: _328  and  _330
REMARK  135  A    between atoms: _330  and  _331
REMARK  136  A    between atoms: _330  and  _333
REMARK  137  A    between atoms: _333  and  _334
REMARK  138  A    between atoms: _337  and  _339
REMARK  139  A    between atoms: _339  and  _340
REMARK  140  A    between atoms: _339  and  _342
REMARK  141  A    between atoms: _342  and  _343
REMARK  142  A    between atoms: _346  and  _348
REMARK  143  A    between atoms: _348  and  _349
REMARK  144  A    between atoms: _351  and  _353
REMARK  145  A    between atoms: _353  and  _354
REMARK  146  A    between atoms: _357  and  _359
REMARK  147  A    between atoms: _359  and  _360
REMARK  148  A    between atoms: _359  and  _362
REMARK  149  A    between atoms: _362  and  _363
REMARK  150  A    between atoms: _366  and  _368
REMARK  151  A    between atoms: _368  and  _369
REMARK  152  A    between atoms: _368  and  _371
REMARK  153  A    between atoms: _371  and  _372
REMARK  154  A    between atoms: _375  and  _377
REMARK  155  A    between atoms: _377  and  _378
REMARK  156  A    between atoms: _377  and  _380
REMARK  157  A    between atoms: _380  and  _381
REMARK  158  A    between atoms: _384  and  _386
REMARK  159  A    between atoms: _386  and  _387
REMARK  160  A    between atoms: _386  and  _389
REMARK  161  A    between atoms: _392  and  _394
REMARK  162  A    between atoms: _394  and  _395
REMARK  163  A    between atoms: _394  and  _397
REMARK  164  A    between atoms: _397  and  _398
REMARK  165  A    between atoms: _401  and  _403
REMARK  166  A    between atoms: _403  and  _404
REMARK  167  A    between atoms: _403  and  _406
REMARK  168  A    between atoms: _406  and  _407
REMARK  169  A    between atoms: _407  and  _408
REMARK  170  A    between atoms: _408  and  _409
REMARK  171  A    between atoms: _409  and  _410
REMARK  172  A    between atoms: _414  and  _416
REMARK  173  A    between atoms: _416  and  _417
REMARK  174  A    between atoms: _416  and  _419
REMARK  175  A    between atoms: _419  and  _420
REMARK  176  A    between atoms: _420  and  _421
REMARK  177  A    between atoms: _423  and  _425
REMARK  178  A    between atoms: _425  and  _426
REMARK  179  A    between atoms: _425  and  _428
REMARK  180  A    between atoms: _428  and  _429
REMARK  181  A    between atoms: _432  and  _434
REMARK  182  A    between atoms: _434  and  _435
REMARK  183  A    between atoms: _437  and  _439
REMARK  184  A    between atoms: _439  and  _440
REMARK  185  A    between atoms: _442  and  _444
REMARK  186  A    between atoms: _444  and  _445
REMARK  187  A    between atoms: _444  and  _447
REMARK  188  A    between atoms: _447  and  _448
REMARK  189  A    between atoms: _451  and  _453
REMARK  190  A    between atoms: _453  and  _454
REMARK  191  A    between atoms: _456  and  _458
REMARK  192  A    between atoms: _458  and  _459
REMARK  193  A    between atoms: _461  and  _463
REMARK  194  A    between atoms: _463  and  _464
REMARK  195  A    between atoms: _463  and  _466
REMARK  196  A    between atoms: _466  and  _467
REMARK  197  A    between atoms: _473  and  _475
REMARK  198  A    between atoms: _475  and  _476
REMARK  199  A    between atoms: _475  and  _478
REMARK  200  A    between atoms: _478  and  _479
REMARK  201  A    between atoms: _482  and  _484
REMARK  202  A    between atoms: _484  and  _485
REMARK  203  A    between atoms: _484  and  _487
REMARK  204  A    between atoms: _490  and  _492
REMARK  205  A    between atoms: _492  and  _493
REMARK  206  A    between atoms: _492  and  _495
REMARK  207  A    between atoms: _495  and  _496
REMARK  208  A    between atoms: _499  and  _501
REMARK  209  A    between atoms: _501  and  _502
REMARK  210  A    between atoms: _501  and  _504
REMARK  211  A    between atoms: _504  and  _505
REMARK  212  A    between atoms: _509  and  _510
REMARK  213  A    between atoms: _515  and  _517
REMARK  214  A    between atoms: _517  and  _518
REMARK  215  A    between atoms: _517  and  _520
REMARK  216  A    between atoms: _523  and  _525
REMARK  217  A    between atoms: _525  and  _526
REMARK  218  A    between atoms: _525  and  _528
REMARK  219  A    between atoms: _528  and  _529
REMARK  220  A    between atoms: _534  and  _536
REMARK  221  A    between atoms: _536  and  _537
REMARK  222  A    between atoms: _536  and  _539
REMARK  223  A    between atoms: _539  and  _540
REMARK  224  A    between atoms: _543  and  _545
REMARK  225  A    between atoms: _545  and  _546
REMARK  226  A    between atoms: _545  and  _548
REMARK  227  A    between atoms: _548  and  _549
REMARK  228  A    between atoms: _552  and  _554
REMARK  229  A    between atoms: _554  and  _555
REMARK  230  A    between atoms: _557  and  _559
REMARK  231  A    between atoms: _559  and  _560
REMARK  232  A    between atoms: _559  and  _562
REMARK  233  A    between atoms: _562  and  _563
REMARK  234  A    between atoms: _563  and  _564
REMARK  235  A    between atoms: _564  and  _565
REMARK  236  A    between atoms: _574  and  _576
REMARK  237  A    between atoms: _576  and  _577
REMARK  238  A    between atoms: _576  and  _579
REMARK  239  A    between atoms: _579  and  _580
REMARK                            x       y       z     vdW  Elec       q    Type
REMARK                         _______ _______ _______ _____ _____    ______ ____
ROOT
ATOM      1  NE  ARG A   1      19.101  20.850  11.341  0.00  0.00    -0.265 N 
ATOM      2  HE  ARG A   1      20.120  20.826  11.550  0.00  0.00    +0.259 HD
ATOM      3  CZ  ARG A   1      18.683  21.459  10.239  0.00  0.00    +0.342 C 
ATOM      4  NH2 ARG A   1      17.383  21.498   9.965  0.00  0.00    -0.292 N 
ATOM      5 HH21 ARG A   1      16.702  21.053  10.612  0.00  0.00    +0.255 HD
ATOM      6 HH22 ARG A   1      17.047  21.973   9.103  0.00  0.00    +0.255 HD
ATOM      7  NH1 ARG A   1      19.593  22.029   9.451  0.00  0.00    -0.292 N 
ATOM      8 HH11 ARG A   1      20.600  21.989   9.707  0.00  0.00    +0.255 HD
ATOM      9 HH12 ARG A   1      19.296  22.514   8.580  0.00  0.00    +0.255 HD
ENDROOT
BRANCH   1  10
ATOM     10  CD  ARG A   1      18.164  20.207  12.276  0.00  0.00    +0.174 C 
BRANCH  10  11
ATOM     11  CG  ARG A   1      18.963  19.540  13.405  0.00  0.00    +0.045 C 
BRANCH  11  12
ATOM     12  CB  ARG A   1      18.049  18.955  14.451  0.00  0.00    +0.029 C 
BRANCH  12  13
ATOM     13  CA  ARG A   1      18.790  18.325  15.642  0.00  0.00    +0.133 C 
BRANCH  13  14
ATOM     14  N   ARG A   1      19.562  17.153  15.199  0.00  0.00    -0.239 NA
ATOM     15  H   ARG A   1      19.589  16.905  14.189  0.00  0.00    +0.142 HD
ENDBRANCH  13  14
BRANCH  13  16
ATOM     16  C   ARG A   1      17.798  17.981  16.738  0.00  0.00    +0.224 C 
ATOM     17  O   ARG A   1      17.083  16.976  16.619  0.00  0.00    -0.287 OA
ENDBRANCH  13  16
ENDBRANCH  12  13
ENDBRANCH  11  12
ENDBRANCH  10  11
ENDBRANCH   1  10
TORSDOF 6
REMARK  Name = ../refined-set-2016/1sdu/1sdu_pocket.pdb
REMARK  239 active torsions:
REMARK  status: ('A' for Active; 'I' for Inactive)
REMARK    1  A    between atoms: _1  and  _3
REMARK    2  A    between atoms: _3  and  _4
REMARK    3  A    between atoms: _3  and  _6
REMARK    4  A    between atoms: _6  and  _7
REMARK    5  A    between atoms: _7  and  _8
REMARK    6  A    between atoms: _8  and  _9
REMARK    7  A    between atoms: _18  and  _20
REMARK    8  A    between atoms: _20  and  _21
REMARK    9  A    between atoms: _20  and  _23
REMARK   10  A    between atoms: _23  and  _24
REMARK   11  A    between atoms: _27  and  _29
REMARK   12  A    between atoms: _29  and  _30
REMARK   13  A    between atoms: _29  and  _32
REMARK   14  A    between atoms: _32  and  _33
REMARK   15  A    between atoms: _36  and  _38
REMARK   16  A    between atoms: _38  and  _39
REMARK   17  A    between atoms: _38  and  _41
REMARK   18  A    between atoms: _41  and  _42
REMARK   19  A    between atoms: _45  and  _47
REMARK   20  A    between atoms: _47  and  _48
REMARK   21  A    between atoms: _47  and  _50
REMARK   22  A    between atoms: _50  and  _51
REMARK   23  A    between atoms: _54  and  _56
REMARK   24  A    between atoms: _56  and  _57
REMARK   25  A    between atoms: _56  and  _59
REMARK   26  A    between atoms: _59  and  _60
REMARK   27  A    between atoms: _63  and  _65
REMARK   28  A    between atoms: _65  and  _66
REMARK   29  A    between atoms: _68  and  _70
REMARK   30  A    between atoms: _70  and  _71
REMARK   31  A    between atoms: _74  and  _76
REMARK   32  A    between atoms: _76  and  _77
REMARK   33  A    between atoms: _76  and  _79
REMARK   34  A    between atoms: _79  and  _80
REMARK   35  A    between atoms: _83  and  _85
REMARK   36  A    between atoms: _85  and  _86
REMARK   37  A    between atoms: _85  and  _88
REMARK   38  A    between atoms: _88  and  _89
REMARK   39  A    between atoms: _92  and  _94
REMARK   40  A    between atoms: _94  and  _95
REMARK   41  A    between atoms: _94  and  _97
REMARK   42  A    between atoms: _97  and  _98
REMARK   43  A    between atoms: _101  and  _103
REMARK   44  A    between atoms: _103  and  _104
REMARK   45  A    between atoms: _103  and  _106
REMARK   46  A    between atoms: _109  and  _111
REMARK   47  A    between atoms: _111  and  _112
REMARK   48  A    between atoms: _111  and  _114
REMARK   49  A    between atoms: _115  and  _116
REMARK   50  A    between atoms: _116  and  _117
REMARK   51  A    between atoms: _117  and  _118
REMARK   52  A    between atoms: _122  and  _124
REMARK   53  A    between atoms: _124  and  _125
REMARK   54  A    between atoms: _124  and  _127
REMARK   55  A    between atoms: _127  and  _128
REMARK   56  A    between atoms: _128  and  _129
REMARK   57  A    between atoms: _131  and  _133
REMARK   58  A    between atoms: _133  and  _134
REMARK   59  A    between atoms: _133  and  _136
REMARK   60  A    between atoms: _136  and  _137
REMARK   61  A    between atoms: _140  and  _142
REMARK   62  A    between atoms: _142  and  _143
REMARK   63  A    between atoms: _145  and  _147
REMARK   64  A    between atoms: _147  and  _148
REMARK   65  A    between atoms: _150  and  _152
REMARK   66  A    between atoms: _152  and  _153
REMARK   67  A    between atoms: _152  and  _155
REMARK   68  A    between atoms: _155  and  _156
REMARK   69  A    between atoms: _159  and  _161
REMARK   70  A    between atoms: _161  and  _162
REMARK   71  A    between atoms: _164  and  _166
REMARK   72  A    between atoms: _166  and  _167
REMARK   73  A    between atoms: _169  and  _171
REMARK   74  A    between atoms: _171  and  _172
REMARK   75  A    between atoms: _171  and  _174
REMARK   76  A    between atoms: _174  and  _175
REMARK   77  A    between atoms: _181  and  _183
REMARK   78  A    between atoms: _183  and  _184
REMARK   79  A    between atoms: _183  and  _186
REMARK   80  A    between atoms: _186  and  _187
REMARK   81  A    between atoms: _190  and  _192
REMARK   82  A    between atoms: _192  and  _193
REMARK   83  A    between atoms: _192  and  _195
REMARK   84  A    between atoms: _198  and  _200
REMARK   85  A    between atoms: _200  and  _201
REMARK   86  A    between atoms: _200  and  _203
REMARK   87  A    between atoms: _203  and  _204
REMARK   88  A    between atoms: _207  and  _209
REMARK   89  A    between atoms: _209  and  _210
REMARK   90  A    between atoms: _209  and  _212
REMARK   91  A    between atoms: _212  and  _213
REMARK   92  A    between atoms: _217  and  _218
REMARK   93  A    between atoms: _223  and  _225
REMARK   94  A    between atoms: _225  and  _226
REMARK   95  A    between atoms: _225  and  _228
REMARK   96  A    between atoms: _231  and  _233
REMARK   97  A    between atoms: _233  and  _234
REMARK   98  A    between atoms: _233  and  _236
REMARK   99  A    between atoms: _236  and  _237
REMARK  100  A    between atoms: _242  and  _244
REMARK  101  A    between atoms: _244  and  _245
REMARK  102  A    between atoms: _244  and  _247
REMARK  103  A    between atoms: _247  and  _248
REMARK  104  A    between atoms: _251  and  _253
REMARK  105  A    between atoms: _253  and  _254
REMARK  106  A    between atoms: _253  and  _256
REMARK  107  A    between atoms: _256  and  _257
REMARK  108  A    between atoms: _260  and  _262
REMARK  109  A    between atoms: _262  and  _263
REMARK  110  A    between atoms: _265  and  _267
REMARK  111  A    between atoms: _267  and  _268
REMARK  112  A    between atoms: _267  and  _270
REMARK  113  A    between atoms: _270  and  _271
REMARK  114  A    between atoms: _271  and  _272
REMARK  115  A    between atoms: _272  and  _273
REMARK  116  A    between atoms: _282  and  _284
REMARK  117  A    between atoms: _284  and  _285
REMARK  118  A    between atoms: _284  and  _287
REMARK  119  A    between atoms: _287  and  _288
REMARK  120  A    between atoms: _293  and  _295
REMARK  121  A    between atoms: _295  and  _296
REMARK  122  A    between atoms: _295  and  _298
REMARK  123  A    between atoms: _298  and  _299
REMARK  124  A    between atoms: _299  and  _300
REMARK  125  A    between atoms: _300  and  _301
REMARK  126  A    between atoms: _310  and  _312
REMARK  127  A    between atoms: _312  and  _313
REMARK  128  A    between atoms: _312  and  _315
REMARK  129  A    between atoms: _315  and  _316
REMARK  130  A    between atoms: _319  and  _321
REMARK  131  A    between atoms: _321  and  _322
REMARK  132  A    between atoms: _321  and  _324
REMARK  133  A    between atoms: _324  and  _325
REMARK  134  A    between atoms: _328  and  _330
REMARK  135  A    between atoms: _330  and  _331
REMARK  136  A    between atoms: _330  and  _333
REMARK  137  A    between atoms: _333  and  _334
REMARK  138  A    between atoms: _337  and  _339
REMARK  139  A    between atoms: _339  and  _340
REMARK  140  A    between atoms: _339  and  _342
REMARK  141  A    between atoms: _342  and  _343
REMARK  142  A    between atoms: _346  and  _348
REMARK  143  A    between atoms: _348  and  _349
REMARK  144  A    between atoms: _351  and  _353
REMARK  145  A    between atoms: _353  and  _354
REMARK  146  A    between atoms: _357  and  _359
REMARK  147  A    between atoms: _359  and  _360
REMARK  148  A    between atoms: _359  and  _362
REMARK  149  A    between atoms: _362  and  _363
REMARK  150  A    between atoms: _366  and  _368
REMARK  151  A    between atoms: _368  and  _369
REMARK  152  A    between atoms: _368  and  _371
REMARK  153  A    between atoms: _371  and  _372
REMARK  154  A    between atoms: _375  and  _377
REMARK  155  A    between atoms: _377  and  _378
REMARK  156  A    between atoms: _377  and  _380
REMARK  157  A    between atoms: _380  and  _381
REMARK  158  A    between atoms: _384  and  _386
REMARK  159  A    between atoms: _386  and  _387
REMARK  160  A    between atoms: _386  and  _389
REMARK  161  A    between atoms: _392  and  _394
REMARK  162  A    between atoms: _394  and  _395
REMARK  163  A    between atoms: _394  and  _397
REMARK  164  A    between atoms: _397  and  _398
REMARK  165  A    between atoms: _401  and  _403
REMARK  166  A    between atoms: _403  and  _404
REMARK  167  A    between atoms: _403  and  _406
REMARK  168  A    between atoms: _406  and  _407
REMARK  169  A    between atoms: _407  and  _408
REMARK  170  A    between atoms: _408  and  _409
REMARK  171  A    between atoms: _409  and  _410
REMARK  172  A    between atoms: _414  and  _416
REMARK  173  A    between atoms: _416  and  _417
REMARK  174  A    between atoms: _416  and  _419
REMARK  175  A    between atoms: _419  and  _420
REMARK  176  A    between atoms: _420  and  _421
REMARK  177  A    between atoms: _423  and  _425
REMARK  178  A    between atoms: _425  and  _426
REMARK  179  A    between atoms: _425  and  _428
REMARK  180  A    between atoms: _428  and  _429
REMARK  181  A    between atoms: _432  and  _434
REMARK  182  A    between atoms: _434  and  _435
REMARK  183  A    between atoms: _437  and  _439
REMARK  184  A    between atoms: _439  and  _440
REMARK  185  A    between atoms: _442  and  _444
REMARK  186  A    between atoms: _444  and  _445
REMARK  187  A    between atoms: _444  and  _447
REMARK  188  A    between atoms: _447  and  _448
REMARK  189  A    between atoms: _451  and  _453
REMARK  190  A    between atoms: _453  and  _454
REMARK  191  A    between atoms: _456  and  _458
REMARK  192  A    between atoms: _458  and  _459
REMARK  193  A    between atoms: _461  and  _463
REMARK  194  A    between atoms: _463  and  _464
REMARK  195  A    between atoms: _463  and  _466
REMARK  196  A    between atoms: _466  and  _467
REMARK  197  A    between atoms: _473  and  _475
REMARK  198  A    between atoms: _475  and  _476
REMARK  199  A    between atoms: _475  and  _478
REMARK  200  A    between atoms: _478  and  _479
REMARK  201  A    between atoms: _482  and  _484
REMARK  202  A    between atoms: _484  and  _485
REMARK  203  A    between atoms: _484  and  _487
REMARK  204  A    between atoms: _490  and  _492
REMARK  205  A    between atoms: _492  and  _493
REMARK  206  A    between atoms: _492  and  _495
REMARK  207  A    between atoms: _495  and  _496
REMARK  208  A    between atoms: _499  and  _501
REMARK  209  A    between atoms: _501  and  _502
REMARK  210  A    between atoms: _501  and  _504
REMARK  211  A    between atoms: _504  and  _505
REMARK  212  A    between atoms: _509  and  _510
REMARK  213  A    between atoms: _515  and  _517
REMARK  214  A    between atoms: _517  and  _518
REMARK  215  A    between atoms: _517  and  _520
REMARK  216  A    between atoms: _523  and  _525
REMARK  217  A    between atoms: _525  and  _526
REMARK  218  A    between atoms: _525  and  _528
REMARK  219  A    between atoms: _528  and  _529
REMARK  220  A    between atoms: _534  and  _536
REMARK  221  A    between atoms: _536  and  _537
REMARK  222  A    between atoms: _536  and  _539
REMARK  223  A    between atoms: _539  and  _540
REMARK  224  A    between atoms: _543  and  _545
REMARK  225  A    between atoms: _545  and  _546
REMARK  226  A    between atoms: _545  and  _548
REMARK  227  A    between atoms: _548  and  _549
REMARK  228  A    between atoms: _552  and  _554
REMARK  229  A    between atoms: _554  and  _555
REMARK  230  A    between atoms: _557  and  _559
REMARK  231  A    between atoms: _559  and  _560
REMARK  232  A    between atoms: _559  and  _562
REMARK  233  A    between atoms: _562  and  _563
REMARK  234  A    between atoms: _563  and  _564
REMARK  235  A    between atoms: _564  and  _565
REMARK  236  A    between atoms: _574  and  _576
REMARK  237  A    between atoms: _576  and  _577
REMARK  238  A    between atoms: _576  and  _579
REMARK  239  A    between atoms: _579  and  _580
REMARK                            x       y       z     vdW  Elec       q    Type
REMARK                         _______ _______ _______ _____ _____    ______ ____
ROOT
ATOM      1  CA  LEU A   1      13.370  18.379  17.534  0.00  0.00    +0.133 C 
ENDROOT
BRANCH   1   2
ATOM      2  N   LEU A   1      14.752  18.108  17.910  0.00  0.00    -0.239 NA
ATOM      3  H   LEU A   1      15.200  17.242  17.548  0.00  0.00    +0.142 HD
ENDBRANCH   1   2
BRANCH   1   4
ATOM      4  C   LEU A   1      12.392  17.740  18.500  0.00  0.00    +0.224 C 
ATOM      5  O   LEU A   1      12.539  16.595  18.890  0.00  0.00    -0.287 OA
ENDBRANCH   1   4
BRANCH   1   6
ATOM      6  CB  LEU A   1      13.095  17.799  16.124  0.00  0.00    +0.025 C 
BRANCH   6   7
ATOM      7  CG  LEU A   1      13.989  18.409  15.036  0.00  0.00    +0.002 C 
ATOM      8  CD2 LEU A   1      13.703  19.886  14.892  0.00  0.00    +0.000 C 
ATOM      9  CD1 LEU A   1      13.780  17.692  13.703  0.00  0.00    +0.000 C 
ENDBRANCH   6   7
ENDBRANCH   1   6
TORSDOF 4
REMARK  Name = ../refined-set-2016/1sdu/1sdu_pocket.pdb
REMARK  239 active torsions:
REMARK  status: ('A' for Active; 'I' for Inactive)
REMARK    1  A    between atoms: _1  and  _3
REMARK    2  A    between atoms: _3  and  _4
REMARK    3  A    between atoms: _3  and  _6
REMARK    4  A    between atoms: _6  and  _7
REMARK    5  A    between atoms: _7  and  _8
REMARK    6  A    between atoms: _8  and  _9
REMARK    7  A    between atoms: _18  and  _20
REMARK    8  A    between atoms: _20  and  _21
REMARK    9  A    between atoms: _20  and  _23
REMARK   10  A    between atoms: _23  and  _24
REMARK   11  A    between atoms: _27  and  _29
REMARK   12  A    between atoms: _29  and  _30
REMARK   13  A    between atoms: _29  and  _32
REMARK   14  A    between atoms: _32  and  _33
REMARK   15  A    between atoms: _36  and  _38
REMARK   16  A    between atoms: _38  and  _39
REMARK   17  A    between atoms: _38  and  _41
REMARK   18  A    between atoms: _41  and  _42
REMARK   19  A    between atoms: _45  and  _47
REMARK   20  A    between atoms: _47  and  _48
REMARK   21  A    between atoms: _47  and  _50
REMARK   22  A    between atoms: _50  and  _51
REMARK   23  A    between atoms: _54  and  _56
REMARK   24  A    between atoms: _56  and  _57
REMARK   25  A    between atoms: _56  and  _59
REMARK   26  A    between atoms: _59  and  _60
REMARK   27  A    between atoms: _63  and  _65
REMARK   28  A    between atoms: _65  and  _66
REMARK   29  A    between atoms: _68  and  _70
REMARK   30  A    between atoms: _70  and  _71
REMARK   31  A    between atoms: _74  and  _76
REMARK   32  A    between atoms: _76  and  _77
REMARK   33  A    between atoms: _76  and  _79
REMARK   34  A    between atoms: _79  and  _80
REMARK   35  A    between atoms: _83  and  _85
REMARK   36  A    between atoms: _85  and  _86
REMARK   37  A    between atoms: _85  and  _88
REMARK   38  A    between atoms: _88  and  _89
REMARK   39  A    between atoms: _92  and  _94
REMARK   40  A    between atoms: _94  and  _95
REMARK   41  A    between atoms: _94  and  _97
REMARK   42  A    between atoms: _97  and  _98
REMARK   43  A    between atoms: _101  and  _103
REMARK   44  A    between atoms: _103  and  _104
REMARK   45  A    between atoms: _103  and  _106
REMARK   46  A    between atoms: _109  and  _111
REMARK   47  A    between atoms: _111  and  _112
REMARK   48  A    between atoms: _111  and  _114
REMARK   49  A    between atoms: _115  and  _116
REMARK   50  A    between atoms: _116  and  _117
REMARK   51  A    between atoms: _117  and  _118
REMARK   52  A    between atoms: _122  and  _124
REMARK   53  A    between atoms: _124  and  _125
REMARK   54  A    between atoms: _124  and  _127
REMARK   55  A    between atoms: _127  and  _128
REMARK   56  A    between atoms: _128  and  _129
REMARK   57  A    between atoms: _131  and  _133
REMARK   58  A    between atoms: _133  and  _134
REMARK   59  A    between atoms: _133  and  _136
REMARK   60  A    between atoms: _136  and  _137
REMARK   61  A    between atoms: _140  and  _142
REMARK   62  A    between atoms: _142  and  _143
REMARK   63  A    between atoms: _145  and  _147
REMARK   64  A    between atoms: _147  and  _148
REMARK   65  A    between atoms: _150  and  _152
REMARK   66  A    between atoms: _152  and  _153
REMARK   67  A    between atoms: _152  and  _155
REMARK   68  A    between atoms: _155  and  _156
REMARK   69  A    between atoms: _159  and  _161
REMARK   70  A    between atoms: _161  and  _162
REMARK   71  A    between atoms: _164  and  _166
REMARK   72  A    between atoms: _166  and  _167
REMARK   73  A    between atoms: _169  and  _171
REMARK   74  A    between atoms: _171  and  _172
REMARK   75  A    between atoms: _171  and  _174
REMARK   76  A    between atoms: _174  and  _175
REMARK   77  A    between atoms: _181  and  _183
REMARK   78  A    between atoms: _183  and  _184
REMARK   79  A    between atoms: _183  and  _186
REMARK   80  A    between atoms: _186  and  _187
REMARK   81  A    between atoms: _190  and  _192
REMARK   82  A    between atoms: _192  and  _193
REMARK   83  A    between atoms: _192  and  _195
REMARK   84  A    between atoms: _198  and  _200
REMARK   85  A    between atoms: _200  and  _201
REMARK   86  A    between atoms: _200  and  _203
REMARK   87  A    between atoms: _203  and  _204
REMARK   88  A    between atoms: _207  and  _209
REMARK   89  A    between atoms: _209  and  _210
REMARK   90  A    between atoms: _209  and  _212
REMARK   91  A    between atoms: _212  and  _213
REMARK   92  A    between atoms: _217  and  _218
REMARK   93  A    between atoms: _223  and  _225
REMARK   94  A    between atoms: _225  and  _226
REMARK   95  A    between atoms: _225  and  _228
REMARK   96  A    between atoms: _231  and  _233
REMARK   97  A    between atoms: _233  and  _234
REMARK   98  A    between atoms: _233  and  _236
REMARK   99  A    between atoms: _236  and  _237
REMARK  100  A    between atoms: _242  and  _244
REMARK  101  A    between atoms: _244  and  _245
REMARK  102  A    between atoms: _244  and  _247
REMARK  103  A    between atoms: _247  and  _248
REMARK  104  A    between atoms: _251  and  _253
REMARK  105  A    between atoms: _253  and  _254
REMARK  106  A    between atoms: _253  and  _256
REMARK  107  A    between atoms: _256  and  _257
REMARK  108  A    between atoms: _260  and  _262
REMARK  109  A    between atoms: _262  and  _263
REMARK  110  A    between atoms: _265  and  _267
REMARK  111  A    between atoms: _267  and  _268
REMARK  112  A    between atoms: _267  and  _270
REMARK  113  A    between atoms: _270  and  _271
REMARK  114  A    between atoms: _271  and  _272
REMARK  115  A    between atoms: _272  and  _273
REMARK  116  A    between atoms: _282  and  _284
REMARK  117  A    between atoms: _284  and  _285
REMARK  118  A    between atoms: _284  and  _287
REMARK  119  A    between atoms: _287  and  _288
REMARK  120  A    between atoms: _293  and  _295
REMARK  121  A    between atoms: _295  and  _296
REMARK  122  A    between atoms: _295  and  _298
REMARK  123  A    between atoms: _298  and  _299
REMARK  124  A    between atoms: _299  and  _300
REMARK  125  A    between atoms: _300  and  _301
REMARK  126  A    between atoms: _310  and  _312
REMARK  127  A    between atoms: _312  and  _313
REMARK  128  A    between atoms: _312  and  _315
REMARK  129  A    between atoms: _315  and  _316
REMARK  130  A    between atoms: _319  and  _321
REMARK  131  A    between atoms: _321  and  _322
REMARK  132  A    between atoms: _321  and  _324
REMARK  133  A    between atoms: _324  and  _325
REMARK  134  A    between atoms: _328  and  _330
REMARK  135  A    between atoms: _330  and  _331
REMARK  136  A    between atoms: _330  and  _333
REMARK  137  A    between atoms: _333  and  _334
REMARK  138  A    between atoms: _337  and  _339
REMARK  139  A    between atoms: _339  and  _340
REMARK  140  A    between atoms: _339  and  _342
REMARK  141  A    between atoms: _342  and  _343
REMARK  142  A    between atoms: _346  and  _348
REMARK  143  A    between atoms: _348  and  _349
REMARK  144  A    between atoms: _351  and  _353
REMARK  145  A    between atoms: _353  and  _354
REMARK  146  A    between atoms: _357  and  _359
REMARK  147  A    between atoms: _359  and  _360
REMARK  148  A    between atoms: _359  and  _362
REMARK  149  A    between atoms: _362  and  _363
REMARK  150  A    between atoms: _366  and  _368
REMARK  151  A    between atoms: _368  and  _369
REMARK  152  A    between atoms: _368  and  _371
REMARK  153  A    between atoms: _371  and  _372
REMARK  154  A    between atoms: _375  and  _377
REMARK  155  A    between atoms: _377  and  _378
REMARK  156  A    between atoms: _377  and  _380
REMARK  157  A    between atoms: _380  and  _381
REMARK  158  A    between atoms: _384  and  _386
REMARK  159  A    between atoms: _386  and  _387
REMARK  160  A    between atoms: _386  and  _389
REMARK  161  A    between atoms: _392  and  _394
REMARK  162  A    between atoms: _394  and  _395
REMARK  163  A    between atoms: _394  and  _397
REMARK  164  A    between atoms: _397  and  _398
REMARK  165  A    between atoms: _401  and  _403
REMARK  166  A    between atoms: _403  and  _404
REMARK  167  A    between atoms: _403  and  _406
REMARK  168  A    between atoms: _406  and  _407
REMARK  169  A    between atoms: _407  and  _408
REMARK  170  A    between atoms: _408  and  _409
REMARK  171  A    between atoms: _409  and  _410
REMARK  172  A    between atoms: _414  and  _416
REMARK  173  A    between atoms: _416  and  _417
REMARK  174  A    between atoms: _416  and  _419
REMARK  175  A    between atoms: _419  and  _420
REMARK  176  A    between atoms: _420  and  _421
REMARK  177  A    between atoms: _423  and  _425
REMARK  178  A    between atoms: _425  and  _426
REMARK  179  A    between atoms: _425  and  _428
REMARK  180  A    between atoms: _428  and  _429
REMARK  181  A    between atoms: _432  and  _434
REMARK  182  A    between atoms: _434  and  _435
REMARK  183  A    between atoms: _437  and  _439
REMARK  184  A    between atoms: _439  and  _440
REMARK  185  A    between atoms: _442  and  _444
REMARK  186  A    between atoms: _444  and  _445
REMARK  187  A    between atoms: _444  and  _447
REMARK  188  A    between atoms: _447  and  _448
REMARK  189  A    between atoms: _451  and  _453
REMARK  190  A    between atoms: _453  and  _454
REMARK  191  A    between atoms: _456  and  _458
REMARK  192  A    between atoms: _458  and  _459
REMARK  193  A    between atoms: _461  and  _463
REMARK  194  A    between atoms: _463  and  _464
REMARK  195  A    between atoms: _463  and  _466
REMARK  196  A    between atoms: _466  and  _467
REMARK  197  A    between atoms: _473  and  _475
REMARK  198  A    between atoms: _475  and  _476
REMARK  199  A    between atoms: _475  and  _478
REMARK  200  A    between atoms: _478  and  _479
REMARK  201  A    between atoms: _482  and  _484
REMARK  202  A    between atoms: _484  and  _485
REMARK  203  A    between atoms: _484  and  _487
REMARK  204  A    between atoms: _490  and  _492
REMARK  205  A    between atoms: _492  and  _493
REMARK  206  A    between atoms: _492  and  _495
REMARK  207  A    between atoms: _495  and  _496
REMARK  208  A    between atoms: _499  and  _501
REMARK  209  A    between atoms: _501  and  _502
REMARK  210  A    between atoms: _501  and  _504
REMARK  211  A    between atoms: _504  and  _505
REMARK  212  A    between atoms: _509  and  _510
REMARK  213  A    between atoms: _515  and  _517
REMARK  214  A    between atoms: _517  and  _518
REMARK  215  A    between atoms: _517  and  _520
REMARK  216  A    between atoms: _523  and  _525
REMARK  217  A    between atoms: _525  and  _526
REMARK  218  A    between atoms: _525  and  _528
REMARK  219  A    between atoms: _528  and  _529
REMARK  220  A    between atoms: _534  and  _536
REMARK  221  A    between atoms: _536  and  _537
REMARK  222  A    between atoms: _536  and  _539
REMARK  223  A    between atoms: _539  and  _540
REMARK  224  A    between atoms: _543  and  _545
REMARK  225  A    between atoms: _545  and  _546
REMARK  226  A    between atoms: _545  and  _548
REMARK  227  A    between atoms: _548  and  _549
REMARK  228  A    between atoms: _552  and  _554
REMARK  229  A    between atoms: _554  and  _555
REMARK  230  A    between atoms: _557  and  _559
REMARK  231  A    between atoms: _559  and  _560
REMARK  232  A    between atoms: _559  and  _562
REMARK  233  A    between atoms: _562  and  _563
REMARK  234  A    between atoms: _563  and  _564
REMARK  235  A    between atoms: _564  and  _565
REMARK  236  A    between atoms: _574  and  _576
REMARK  237  A    between atoms: _576  and  _577
REMARK  238  A    between atoms: _576  and  _579
REMARK  239  A    between atoms: _579  and  _580
REMARK                            x       y       z     vdW  Elec       q    Type
REMARK                         _______ _______ _______ _____ _____    ______ ____
ROOT
ATOM      1  C   GLY A   5      20.122  31.224  20.150  0.00  0.00    +0.243 C 
ATOM      2  N   ALA A   6      18.860  30.895  20.175  0.00  0.00    -0.297 N 
ATOM      3  H   ALA A   6      18.599  29.939  20.490  0.00  0.00    +0.150 HD
ATOM      4  O   GLY A   5      20.521  32.318  19.798  0.00  0.00    -0.273 OA
ENDROOT
BRANCH   2   5
ATOM      5  CA  ALA A   6      17.817  31.803  19.784  0.00  0.00    +0.149 C 
ATOM      6  CB  ALA A   6      16.711  31.001  19.080  0.00  0.00    +0.031 C 
BRANCH   5   7
ATOM      7  C   ALA A   6      17.262  32.535  20.984  0.00  0.00    +0.241 C 
ATOM      8  O   ALA A   6      16.810  31.910  21.948  0.00  0.00    -0.273 OA
ATOM      9  N   ASP A   7      17.289  33.851  20.926  0.00  0.00    -0.297 N 
ATOM     10  H   ASP A   7      17.729  34.321  20.109  0.00  0.00    +0.150 HD
BRANCH   9  11
ATOM     11  CA  ASP A   7      16.711  34.653  21.991  0.00  0.00    +0.160 C 
BRANCH  11  12
ATOM     12  C   ASP A   7      15.175  34.499  22.057  0.00  0.00    +0.241 C 
ATOM     13  O   ASP A   7      14.569  34.538  23.144  0.00  0.00    -0.273 OA
ATOM     14  N   ASP A   8      14.589  34.371  20.888  0.00  0.00    -0.297 N 
ATOM     15  H   ASP A   8      15.209  34.240  20.063  0.00  0.00    +0.150 HD
BRANCH  14  16
ATOM     16  CA  ASP A   8      13.186  34.394  20.641  0.00  0.00    +0.160 C 
BRANCH  16  17
ATOM     17  C   ASP A   8      12.710  33.109  19.996  0.00  0.00    +0.241 C 
ATOM     18  N   THR A   9      11.402  32.910  19.985  0.00  0.00    -0.295 N 
ATOM     19  H   THR A   9      10.810  33.622  20.459  0.00  0.00    +0.150 HD
ATOM     20  O   ASP A   8      13.518  32.319  19.508  0.00  0.00    -0.273 OA
BRANCH  18  21
ATOM     21  CA  THR A   9      10.722  31.790  19.373  0.00  0.00    +0.176 C 
BRANCH  21  22
ATOM     22  C   THR A   9      10.112  32.213  18.041  0.00  0.00    +0.243 C 
ATOM     23  O   THR A   9       9.380  33.201  18.022  0.00  0.00    -0.273 OA
ATOM     24  N   VAL A  10      10.417  31.501  16.974  0.00  0.00    -0.298 N 
ATOM     25  H   VAL A  10      10.998  30.648  17.103  0.00  0.00    +0.150 HD
BRANCH  24  26
ATOM     26  CA  VAL A  10       9.986  31.842  15.625  0.00  0.00    +0.137 C 
BRANCH  26  27
ATOM     27  CB  VAL A  10      11.151  32.341  14.749  0.00  0.00    +0.026 C 
ATOM     28  CG2 VAL A  10      12.063  33.325  15.430  0.00  0.00    +0.002 C 
ATOM     29  CG1 VAL A  10      10.526  32.950  13.470  0.00  0.00    +0.002 C 
ENDBRANCH  26  27
BRANCH  26  30
ATOM     30  C   VAL A  10       9.309  30.628  15.011  0.00  0.00    +0.227 C 
ATOM     31  O   VAL A  10       9.917  29.574  14.878  0.00  0.00    -0.286 OA
ENDBRANCH  26  30
ENDBRANCH  24  26
ENDBRANCH  21  22
BRANCH  21  32
ATOM     32  CB  THR A   9       9.667  31.278  20.365  0.00  0.00    +0.137 C 
ATOM     33  CG2 THR A   9       8.746  30.230  19.747  0.00  0.00    +0.034 C 
BRANCH  32  34
ATOM     34  OG1 THR A   9      10.353  30.712  21.492  0.00  0.00    -0.382 OA
ATOM     35  HG1 THR A   9      10.914  31.407  21.918  0.00  0.00    +0.210 HD
ENDBRANCH  32  34
ENDBRANCH  21  32
ENDBRANCH  18  21
ENDBRANCH  16  17
BRANCH  16  36
ATOM     36  CB  ASP A   8      12.882  35.583  19.712  0.00  0.00    +0.143 C 
BRANCH  36  37
ATOM     37  CG  ASP A   8      13.391  36.914  20.177  0.00  0.00    +0.367 C 
ATOM     38  OD2 ASP A   8      13.276  37.203  21.363  0.00  0.00    -0.246 OA
ATOM     39  OD1 ASP A   8      13.890  37.628  19.281  0.00  0.00    -0.246 OA
ENDBRANCH  36  37
ENDBRANCH  16  36
ENDBRANCH  14  16
ENDBRANCH  11  12
BRANCH  11  40
ATOM     40  CB  ASP A   7      17.059  36.121  21.809  0.00  0.00    +0.143 C 
BRANCH  40  41
ATOM     41  CG  ASP A   7      18.499  36.510  21.946  0.00  0.00    +0.367 C 
ATOM     42  OD2 ASP A   7      19.310  35.737  22.490  0.00  0.00    -0.246 OA
ATOM     43  OD1 ASP A   7      18.813  37.635  21.472  0.00  0.00    -0.246 OA
ENDBRANCH  40  41
ENDBRANCH  11  40
ENDBRANCH   9  11
ENDBRANCH   5   7
ENDBRANCH   2   5
BRANCH   1  44
ATOM     44  CA  GLY A   5      21.164  30.178  20.529  0.00  0.00    +0.176 C 
BRANCH  44  47
ATOM     45  C   THR A   4      20.303  28.927  22.421  0.00  0.00    +0.243 C 
ATOM     46  O   THR A   4      20.550  29.861  23.194  0.00  0.00    -0.273 OA
ATOM     47  N   GLY A   5      20.604  28.999  21.141  0.00  0.00    -0.295 N 
ATOM     48  H   GLY A   5      20.429  28.166  20.543  0.00  0.00    +0.150 HD
BRANCH  45  49
ATOM     49  CA  THR A   4      19.651  27.695  22.976  0.00  0.00    +0.176 C 
BRANCH  49  51
ATOM     50  C   ASP A   3      17.987  27.292  21.257  0.00  0.00    +0.241 C 
ATOM     51  N   THR A   4      19.063  26.866  21.929  0.00  0.00    -0.295 N 
ATOM     52  H   THR A   4      19.482  25.941  21.704  0.00  0.00    +0.150 HD
ATOM     53  O   ASP A   3      17.489  28.398  21.384  0.00  0.00    -0.273 OA
BRANCH  50  54
ATOM     54  CA  ASP A   3      17.480  26.310  20.213  0.00  0.00    +0.160 C 
BRANCH  54  56
ATOM     55  C   LEU A   2      16.364  24.197  20.643  0.00  0.00    +0.241 C 
ATOM     56  N   ASP A   3      16.349  25.511  20.672  0.00  0.00    -0.297 N 
ATOM     57  H   ASP A   3      15.504  25.997  21.034  0.00  0.00    +0.150 HD
ATOM     58  O   LEU A   2      17.382  23.515  20.432  0.00  0.00    -0.273 OA
BRANCH  55  59
ATOM     59  CA  LEU A   2      15.024  23.510  20.856  0.00  0.00    +0.149 C 
BRANCH  59  61
ATOM     60  C   LEU A   1      14.110  23.560  18.612  0.00  0.00    +0.238 C 
ATOM     61  N   LEU A   2      14.634  22.862  19.626  0.00  0.00    -0.297 N 
ATOM     62  H   LEU A   2      14.763  21.835  19.527  0.00  0.00    +0.150 HD
ATOM     63  O   LEU A   1      13.839  24.743  18.704  0.00  0.00    -0.274 OA
BRANCH  60  64
ATOM     64  CA  LEU A   1      13.886  22.863  17.314  0.00  0.00    +0.145 C 
BRANCH  64  65
ATOM     65  N   LEU A   1      12.511  22.989  16.862  0.00  0.00    -0.238 NA
ATOM     66  H   LEU A   1      12.262  23.836  16.313  0.00  0.00    +0.142 HD
ENDBRANCH  64  65
BRANCH  64  67
ATOM     67  CB  LEU A   1      14.735  23.445  16.185  0.00  0.00    +0.026 C 
BRANCH  67  68
ATOM     68  CG  LEU A   1      16.205  23.506  16.273  0.00  0.00    +0.002 C 
ATOM     69  CD2 LEU A   1      16.739  22.110  16.343  0.00  0.00    +0.000 C 
ATOM     70  CD1 LEU A   1      16.745  24.286  15.072  0.00  0.00    +0.000 C 
ENDBRANCH  67  68
ENDBRANCH  64  67
ENDBRANCH  60  64
ENDBRANCH  59  61
BRANCH  59  71
ATOM     71  CB  LEU A   2      15.120  22.497  22.009  0.00  0.00    +0.029 C 
BRANCH  71  72
ATOM     72  CG  LEU A   2      13.822  21.756  22.331  0.00  0.00    +0.002 C 
ATOM     73  CD2 LEU A   2      14.124  20.688  23.392  0.00  0.00    +0.000 C 
ATOM     74  CD1 LEU A   2      12.740  22.759  22.730  0.00  0.00    +0.000 C 
ENDBRANCH  71  72
ENDBRANCH  59  71
ENDBRANCH  55  59
ENDBRANCH  54  56
BRANCH  54  75
ATOM     75  CB  ASP A   3      17.072  27.062  18.943  0.00  0.00    +0.143 C 
BRANCH  75  76
ATOM     76  CG  ASP A   3      18.316  27.727  18.341  0.00  0.00    +0.367 C 
ATOM     77  OD2 ASP A   3      19.402  27.648  18.943  0.00  0.00    -0.246 OA
ATOM     78  OD1 ASP A   3      18.139  28.258  17.226  0.00  0.00    -0.246 OA
ENDBRANCH  75  76
ENDBRANCH  54  75
ENDBRANCH  50  54
ENDBRANCH  49  51
BRANCH  49  79
ATOM     79  CB  THR A   4      20.693  26.924  23.794  0.00  0.00    +0.137 C 
ATOM     80  CG2 THR A   4      20.026  25.721  24.458  0.00  0.00    +0.034 C 
BRANCH  79  81
ATOM     81  OG1 THR A   4      21.755  26.457  22.970  0.00  0.00    -0.382 OA
ATOM     82  HG1 THR A   4      22.201  27.229  22.539  0.00  0.00    +0.210 HD
ENDBRANCH  79  81
ENDBRANCH  49  79
ENDBRANCH  45  49
ENDBRANCH  44  47
ENDBRANCH   1  44
TORSDOF 35
REMARK  Name = ../refined-set-2016/1sdu/1sdu_pocket.pdb
REMARK  239 active torsions:
REMARK  status: ('A' for Active; 'I' for Inactive)
REMARK    1  A    between atoms: _1  and  _3
REMARK    2  A    between atoms: _3  and  _4
REMARK    3  A    between atoms: _3  and  _6
REMARK    4  A    between atoms: _6  and  _7
REMARK    5  A    between atoms: _7  and  _8
REMARK    6  A    between atoms: _8  and  _9
REMARK    7  A    between atoms: _18  and  _20
REMARK    8  A    between atoms: _20  and  _21
REMARK    9  A    between atoms: _20  and  _23
REMARK   10  A    between atoms: _23  and  _24
REMARK   11  A    between atoms: _27  and  _29
REMARK   12  A    between atoms: _29  and  _30
REMARK   13  A    between atoms: _29  and  _32
REMARK   14  A    between atoms: _32  and  _33
REMARK   15  A    between atoms: _36  and  _38
REMARK   16  A    between atoms: _38  and  _39
REMARK   17  A    between atoms: _38  and  _41
REMARK   18  A    between atoms: _41  and  _42
REMARK   19  A    between atoms: _45  and  _47
REMARK   20  A    between atoms: _47  and  _48
REMARK   21  A    between atoms: _47  and  _50
REMARK   22  A    between atoms: _50  and  _51
REMARK   23  A    between atoms: _54  and  _56
REMARK   24  A    between atoms: _56  and  _57
REMARK   25  A    between atoms: _56  and  _59
REMARK   26  A    between atoms: _59  and  _60
REMARK   27  A    between atoms: _63  and  _65
REMARK   28  A    between atoms: _65  and  _66
REMARK   29  A    between atoms: _68  and  _70
REMARK   30  A    between atoms: _70  and  _71
REMARK   31  A    between atoms: _74  and  _76
REMARK   32  A    between atoms: _76  and  _77
REMARK   33  A    between atoms: _76  and  _79
REMARK   34  A    between atoms: _79  and  _80
REMARK   35  A    between atoms: _83  and  _85
REMARK   36  A    between atoms: _85  and  _86
REMARK   37  A    between atoms: _85  and  _88
REMARK   38  A    between atoms: _88  and  _89
REMARK   39  A    between atoms: _92  and  _94
REMARK   40  A    between atoms: _94  and  _95
REMARK   41  A    between atoms: _94  and  _97
REMARK   42  A    between atoms: _97  and  _98
REMARK   43  A    between atoms: _101  and  _103
REMARK   44  A    between atoms: _103  and  _104
REMARK   45  A    between atoms: _103  and  _106
REMARK   46  A    between atoms: _109  and  _111
REMARK   47  A    between atoms: _111  and  _112
REMARK   48  A    between atoms: _111  and  _114
REMARK   49  A    between atoms: _115  and  _116
REMARK   50  A    between atoms: _116  and  _117
REMARK   51  A    between atoms: _117  and  _118
REMARK   52  A    between atoms: _122  and  _124
REMARK   53  A    between atoms: _124  and  _125
REMARK   54  A    between atoms: _124  and  _127
REMARK   55  A    between atoms: _127  and  _128
REMARK   56  A    between atoms: _128  and  _129
REMARK   57  A    between atoms: _131  and  _133
REMARK   58  A    between atoms: _133  and  _134
REMARK   59  A    between atoms: _133  and  _136
REMARK   60  A    between atoms: _136  and  _137
REMARK   61  A    between atoms: _140  and  _142
REMARK   62  A    between atoms: _142  and  _143
REMARK   63  A    between atoms: _145  and  _147
REMARK   64  A    between atoms: _147  and  _148
REMARK   65  A    between atoms: _150  and  _152
REMARK   66  A    between atoms: _152  and  _153
REMARK   67  A    between atoms: _152  and  _155
REMARK   68  A    between atoms: _155  and  _156
REMARK   69  A    between atoms: _159  and  _161
REMARK   70  A    between atoms: _161  and  _162
REMARK   71  A    between atoms: _164  and  _166
REMARK   72  A    between atoms: _166  and  _167
REMARK   73  A    between atoms: _169  and  _171
REMARK   74  A    between atoms: _171  and  _172
REMARK   75  A    between atoms: _171  and  _174
REMARK   76  A    between atoms: _174  and  _175
REMARK   77  A    between atoms: _181  and  _183
REMARK   78  A    between atoms: _183  and  _184
REMARK   79  A    between atoms: _183  and  _186
REMARK   80  A    between atoms: _186  and  _187
REMARK   81  A    between atoms: _190  and  _192
REMARK   82  A    between atoms: _192  and  _193
REMARK   83  A    between atoms: _192  and  _195
REMARK   84  A    between atoms: _198  and  _200
REMARK   85  A    between atoms: _200  and  _201
REMARK   86  A    between atoms: _200  and  _203
REMARK   87  A    between atoms: _203  and  _204
REMARK   88  A    between atoms: _207  and  _209
REMARK   89  A    between atoms: _209  and  _210
REMARK   90  A    between atoms: _209  and  _212
REMARK   91  A    between atoms: _212  and  _213
REMARK   92  A    between atoms: _217  and  _218
REMARK   93  A    between atoms: _223  and  _225
REMARK   94  A    between atoms: _225  and  _226
REMARK   95  A    between atoms: _225  and  _228
REMARK   96  A    between atoms: _231  and  _233
REMARK   97  A    between atoms: _233  and  _234
REMARK   98  A    between atoms: _233  and  _236
REMARK   99  A    between atoms: _236  and  _237
REMARK  100  A    between atoms: _242  and  _244
REMARK  101  A    between atoms: _244  and  _245
REMARK  102  A    between atoms: _244  and  _247
REMARK  103  A    between atoms: _247  and  _248
REMARK  104  A    between atoms: _251  and  _253
REMARK  105  A    between atoms: _253  and  _254
REMARK  106  A    between atoms: _253  and  _256
REMARK  107  A    between atoms: _256  and  _257
REMARK  108  A    between atoms: _260  and  _262
REMARK  109  A    between atoms: _262  and  _263
REMARK  110  A    between atoms: _265  and  _267
REMARK  111  A    between atoms: _267  and  _268
REMARK  112  A    between atoms: _267  and  _270
REMARK  113  A    between atoms: _270  and  _271
REMARK  114  A    between atoms: _271  and  _272
REMARK  115  A    between atoms: _272  and  _273
REMARK  116  A    between atoms: _282  and  _284
REMARK  117  A    between atoms: _284  and  _285
REMARK  118  A    between atoms: _284  and  _287
REMARK  119  A    between atoms: _287  and  _288
REMARK  120  A    between atoms: _293  and  _295
REMARK  121  A    between atoms: _295  and  _296
REMARK  122  A    between atoms: _295  and  _298
REMARK  123  A    between atoms: _298  and  _299
REMARK  124  A    between atoms: _299  and  _300
REMARK  125  A    between atoms: _300  and  _301
REMARK  126  A    between atoms: _310  and  _312
REMARK  127  A    between atoms: _312  and  _313
REMARK  128  A    between atoms: _312  and  _315
REMARK  129  A    between atoms: _315  and  _316
REMARK  130  A    between atoms: _319  and  _321
REMARK  131  A    between atoms: _321  and  _322
REMARK  132  A    between atoms: _321  and  _324
REMARK  133  A    between atoms: _324  and  _325
REMARK  134  A    between atoms: _328  and  _330
REMARK  135  A    between atoms: _330  and  _331
REMARK  136  A    between atoms: _330  and  _333
REMARK  137  A    between atoms: _333  and  _334
REMARK  138  A    between atoms: _337  and  _339
REMARK  139  A    between atoms: _339  and  _340
REMARK  140  A    between atoms: _339  and  _342
REMARK  141  A    between atoms: _342  and  _343
REMARK  142  A    between atoms: _346  and  _348
REMARK  143  A    between atoms: _348  and  _349
REMARK  144  A    between atoms: _351  and  _353
REMARK  145  A    between atoms: _353  and  _354
REMARK  146  A    between atoms: _357  and  _359
REMARK  147  A    between atoms: _359  and  _360
REMARK  148  A    between atoms: _359  and  _362
REMARK  149  A    between atoms: _362  and  _363
REMARK  150  A    between atoms: _366  and  _368
REMARK  151  A    between atoms: _368  and  _369
REMARK  152  A    between atoms: _368  and  _371
REMARK  153  A    between atoms: _371  and  _372
REMARK  154  A    between atoms: _375  and  _377
REMARK  155  A    between atoms: _377  and  _378
REMARK  156  A    between atoms: _377  and  _380
REMARK  157  A    between atoms: _380  and  _381
REMARK  158  A    between atoms: _384  and  _386
REMARK  159  A    between atoms: _386  and  _387
REMARK  160  A    between atoms: _386  and  _389
REMARK  161  A    between atoms: _392  and  _394
REMARK  162  A    between atoms: _394  and  _395
REMARK  163  A    between atoms: _394  and  _397
REMARK  164  A    between atoms: _397  and  _398
REMARK  165  A    between atoms: _401  and  _403
REMARK  166  A    between atoms: _403  and  _404
REMARK  167  A    between atoms: _403  and  _406
REMARK  168  A    between atoms: _406  and  _407
REMARK  169  A    between atoms: _407  and  _408
REMARK  170  A    between atoms: _408  and  _409
REMARK  171  A    between atoms: _409  and  _410
REMARK  172  A    between atoms: _414  and  _416
REMARK  173  A    between atoms: _416  and  _417
REMARK  174  A    between atoms: _416  and  _419
REMARK  175  A    between atoms: _419  and  _420
REMARK  176  A    between atoms: _420  and  _421
REMARK  177  A    between atoms: _423  and  _425
REMARK  178  A    between atoms: _425  and  _426
REMARK  179  A    between atoms: _425  and  _428
REMARK  180  A    between atoms: _428  and  _429
REMARK  181  A    between atoms: _432  and  _434
REMARK  182  A    between atoms: _434  and  _435
REMARK  183  A    between atoms: _437  and  _439
REMARK  184  A    between atoms: _439  and  _440
REMARK  185  A    between atoms: _442  and  _444
REMARK  186  A    between atoms: _444  and  _445
REMARK  187  A    between atoms: _444  and  _447
REMARK  188  A    between atoms: _447  and  _448
REMARK  189  A    between atoms: _451  and  _453
REMARK  190  A    between atoms: _453  and  _454
REMARK  191  A    between atoms: _456  and  _458
REMARK  192  A    between atoms: _458  and  _459
REMARK  193  A    between atoms: _461  and  _463
REMARK  194  A    between atoms: _463  and  _464
REMARK  195  A    between atoms: _463  and  _466
REMARK  196  A    between atoms: _466  and  _467
REMARK  197  A    between atoms: _473  and  _475
REMARK  198  A    between atoms: _475  and  _476
REMARK  199  A    between atoms: _475  and  _478
REMARK  200  A    between atoms: _478  and  _479
REMARK  201  A    between atoms: _482  and  _484
REMARK  202  A    between atoms: _484  and  _485
REMARK  203  A    between atoms: _484  and  _487
REMARK  204  A    between atoms: _490  and  _492
REMARK  205  A    between atoms: _492  and  _493
REMARK  206  A    between atoms: _492  and  _495
REMARK  207  A    between atoms: _495  and  _496
REMARK  208  A    between atoms: _499  and  _501
REMARK  209  A    between atoms: _501  and  _502
REMARK  210  A    between atoms: _501  and  _504
REMARK  211  A    between atoms: _504  and  _505
REMARK  212  A    between atoms: _509  and  _510
REMARK  213  A    between atoms: _515  and  _517
REMARK  214  A    between atoms: _517  and  _518
REMARK  215  A    between atoms: _517  and  _520
REMARK  216  A    between atoms: _523  and  _525
REMARK  217  A    between atoms: _525  and  _526
REMARK  218  A    between atoms: _525  and  _528
REMARK  219  A    between atoms: _528  and  _529
REMARK  220  A    between atoms: _534  and  _536
REMARK  221  A    between atoms: _536  and  _537
REMARK  222  A    between atoms: _536  and  _539
REMARK  223  A    between atoms: _539  and  _540
REMARK  224  A    between atoms: _543  and  _545
REMARK  225  A    between atoms: _545  and  _546
REMARK  226  A    between atoms: _545  and  _548
REMARK  227  A    between atoms: _548  and  _549
REMARK  228  A    between atoms: _552  and  _554
REMARK  229  A    between atoms: _554  and  _555
REMARK  230  A    between atoms: _557  and  _559
REMARK  231  A    between atoms: _559  and  _560
REMARK  232  A    between atoms: _559  and  _562
REMARK  233  A    between atoms: _562  and  _563
REMARK  234  A    between atoms: _563  and  _564
REMARK  235  A    between atoms: _564  and  _565
REMARK  236  A    between atoms: _574  and  _576
REMARK  237  A    between atoms: _576  and  _577
REMARK  238  A    between atoms: _576  and  _579
REMARK  239  A    between atoms: _579  and  _580
REMARK                            x       y       z     vdW  Elec       q    Type
REMARK                         _______ _______ _______ _____ _____    ______ ____
ROOT
ATOM      1  C   GLY A   5      21.392  35.656  11.638  0.00  0.00    +0.243 C 
ATOM      2  O   GLY A   5      21.897  36.764  11.414  0.00  0.00    -0.273 OA
ATOM      3  N   ILE A   6      22.017  34.515  11.354  0.00  0.00    -0.297 N 
ATOM      4  H   ILE A   6      21.538  33.601  11.486  0.00  0.00    +0.150 HD
ENDROOT
BRANCH   3   5
ATOM      5  CA  ILE A   6      23.366  34.571  10.861  0.00  0.00    +0.149 C 
BRANCH   5   6
ATOM      6  C   ILE A   6      23.464  35.255   9.523  0.00  0.00    +0.241 C 
ATOM      7  O   ILE A   6      24.565  35.801   9.248  0.00  0.00    -0.273 OA
ATOM      8  N   GLY A   7      22.411  35.250   8.713  0.00  0.00    -0.295 N 
ATOM      9  H   GLY A   7      21.502  34.867   9.042  0.00  0.00    +0.150 HD
BRANCH   8  10
ATOM     10  CA  GLY A   7      22.535  35.790   7.344  0.00  0.00    +0.176 C 
BRANCH  10  11
ATOM     11  C   GLY A   7      21.935  37.164   7.131  0.00  0.00    +0.243 C 
ATOM     12  N   GLY A   8      21.345  37.737   8.148  0.00  0.00    -0.295 N 
ATOM     13  H   GLY A   8      21.370  37.241   9.062  0.00  0.00    +0.150 HD
ATOM     14  O   GLY A   7      22.074  37.721   6.037  0.00  0.00    -0.273 OA
BRANCH  12  15
ATOM     15  CA  GLY A   8      20.671  38.991   8.096  0.00  0.00    +0.176 C 
BRANCH  15  16
ATOM     16  C   GLY A   8      19.347  38.948   8.746  0.00  0.00    +0.243 C 
ATOM     17  O   GLY A   8      19.045  38.062   9.529  0.00  0.00    -0.273 OA
ATOM     18  N   PHE A   9      18.497  39.933   8.485  0.00  0.00    -0.297 N 
ATOM     19  H   PHE A   9      18.752  40.626   7.753  0.00  0.00    +0.150 HD
BRANCH  18  20
ATOM     20  CA  PHE A   9      17.236  40.089   9.168  0.00  0.00    +0.153 C 
BRANCH  20  21
ATOM     21  C   PHE A   9      16.059  39.646   8.309  0.00  0.00    +0.241 C 
ATOM     22  N   ILE A  10      15.017  39.209   9.004  0.00  0.00    -0.298 N 
ATOM     23  H   ILE A  10      15.119  39.077  10.031  0.00  0.00    +0.150 HD
ATOM     24  O   PHE A   9      16.115  39.778   7.082  0.00  0.00    -0.273 OA
BRANCH  22  25
ATOM     25  CA  ILE A  10      13.726  38.905   8.378  0.00  0.00    +0.137 C 
BRANCH  25  26
ATOM     26  C   ILE A  10      12.609  39.635   9.146  0.00  0.00    +0.227 C 
ATOM     27  O   ILE A  10      12.738  39.974  10.315  0.00  0.00    -0.286 OA
ENDBRANCH  25  26
BRANCH  25  28
ATOM     28  CB  ILE A  10      13.442  37.409   8.296  0.00  0.00    +0.026 C 
ATOM     29  CG2 ILE A  10      14.541  36.751   7.461  0.00  0.00    +0.002 C 
BRANCH  28  30
ATOM     30  CG1 ILE A  10      13.276  36.773   9.662  0.00  0.00    +0.002 C 
ATOM     31  CD1 ILE A  10      12.644  35.388   9.628  0.00  0.00    +0.000 C 
ENDBRANCH  28  30
ENDBRANCH  25  28
ENDBRANCH  22  25
ENDBRANCH  20  21
BRANCH  20  32
ATOM     32  CB  PHE A   9      17.033  41.586   9.567  0.00  0.00    +0.055 C 
BRANCH  32  33
ATOM     33  CG  PHE A   9      17.840  41.982  10.796  0.00  0.00    -0.020 A 
ATOM     34  CD2 PHE A   9      17.213  42.167  12.013  0.00  0.00    -0.004 A 
ATOM     35  CE2 PHE A   9      17.946  42.485  13.157  0.00  0.00    -0.000 A 
ATOM     36  CZ  PHE A   9      19.301  42.711  13.065  0.00  0.00    -0.000 A 
ATOM     37  CE1 PHE A   9      19.919  42.577  11.839  0.00  0.00    -0.000 A 
ATOM     38  CD1 PHE A   9      19.202  42.208  10.725  0.00  0.00    -0.004 A 
ENDBRANCH  32  33
ENDBRANCH  20  32
ENDBRANCH  18  20
ENDBRANCH  15  16
ENDBRANCH  12  15
ENDBRANCH  10  11
ENDBRANCH   8  10
ENDBRANCH   5   6
BRANCH   5  39
ATOM     39  CB  ILE A   6      24.076  33.178  10.819  0.00  0.00    +0.027 C 
ATOM     40  CG2 ILE A   6      24.196  32.638  12.239  0.00  0.00    +0.002 C 
BRANCH  39  41
ATOM     41  CG1 ILE A   6      23.430  32.235   9.839  0.00  0.00    +0.002 C 
ATOM     42  CD1 ILE A   6      24.206  30.940   9.603  0.00  0.00    +0.000 C 
ENDBRANCH  39  41
ENDBRANCH   5  39
ENDBRANCH   3   5
BRANCH   1  43
ATOM     43  CA  GLY A   5      19.991  35.552  12.186  0.00  0.00    +0.176 C 
BRANCH  43  46
ATOM     44  C   GLY A   4      19.005  37.539  13.209  0.00  0.00    +0.243 C 
ATOM     45  O   GLY A   4      19.132  37.080  14.349  0.00  0.00    -0.273 OA
ATOM     46  N   GLY A   5      19.331  36.840  12.138  0.00  0.00    -0.295 N 
ATOM     47  H   GLY A   5      19.100  37.237  11.205  0.00  0.00    +0.150 HD
BRANCH  44  48
ATOM     48  CA  GLY A   4      18.448  38.919  12.938  0.00  0.00    +0.176 C 
BRANCH  48  50
ATOM     49  C   ILE A   3      16.043  39.233  12.952  0.00  0.00    +0.241 C 
ATOM     50  N   GLY A   4      17.206  39.162  13.591  0.00  0.00    -0.295 N 
ATOM     51  H   GLY A   4      17.209  39.291  14.623  0.00  0.00    +0.150 HD
ATOM     52  O   ILE A   3      15.904  38.987  11.749  0.00  0.00    -0.273 OA
BRANCH  49  53
ATOM     53  CA  ILE A   3      14.881  39.679  13.815  0.00  0.00    +0.149 C 
BRANCH  53  56
ATOM     54  C   MET A   2      13.542  41.661  13.404  0.00  0.00    +0.241 C 
ATOM     55  O   MET A   2      13.916  42.188  14.466  0.00  0.00    -0.273 OA
ATOM     56  N   ILE A   3      13.955  40.467  13.025  0.00  0.00    -0.297 N 
ATOM     57  H   ILE A   3      13.604  40.077  12.127  0.00  0.00    +0.150 HD
BRANCH  54  58
ATOM     58  CA  MET A   2      12.556  42.339  12.474  0.00  0.00    +0.149 C 
BRANCH  58  60
ATOM     59  C   LYS A   1      10.225  42.675  13.116  0.00  0.00    +0.243 C 
ATOM     60  N   MET A   2      11.525  42.963  13.290  0.00  0.00    -0.297 N 
ATOM     61  H   MET A   2      11.801  43.647  14.024  0.00  0.00    +0.150 HD
ATOM     62  O   LYS A   1       9.818  42.026  12.157  0.00  0.00    -0.273 OA
BRANCH  59  63
ATOM     63  CA  LYS A   1       9.300  43.113  14.231  0.00  0.00    +0.167 C 
BRANCH  63  64
ATOM     64  N   LYS A   1       7.962  43.234  13.673  0.00  0.00    -0.234 NA
ATOM     65  H   LYS A   1       7.692  42.568  12.921  0.00  0.00    +0.142 HD
ENDBRANCH  63  64
BRANCH  63  66
ATOM     66  CB  LYS A   1       9.266  42.027  15.335  0.00  0.00    -0.005 C 
ATOM     67  CG  LYS A   1      10.511  41.829  16.173  0.00  0.00    -0.031 C 
BRANCH  67  68
ATOM     68  CD  LYS A   1      10.385  40.894  17.310  0.00  0.00    +0.002 C 
BRANCH  68  69
ATOM     69  CE  LYS A   1      11.686  40.770  18.118  0.00  0.00    -0.081 C 
BRANCH  69  70
ATOM     70  NZ  LYS A   1      11.851  41.810  19.166  0.00  0.00    +0.381 N 
ATOM     71  HZ1 LYS A   1      11.063  41.747  19.842  0.00  0.00    -0.089 HD
ATOM     72  HZ2 LYS A   1      12.751  41.658  19.665  0.00  0.00    -0.089 HD
ATOM     73  HZ3 LYS A   1      11.854  42.750  18.722  0.00  0.00    -0.089 HD
ENDBRANCH  69  70
ENDBRANCH  68  69
ENDBRANCH  67  68
ENDBRANCH  63  66
ENDBRANCH  59  63
ENDBRANCH  58  60
BRANCH  58  74
ATOM     74  CB  MET A   2      13.192  43.419  11.552  0.00  0.00    +0.041 C 
BRANCH  74  75
ATOM     75  CG  MET A   2      12.256  43.776  10.404  0.00  0.00    +0.060 C 
BRANCH  75  76
ATOM     76  SD  MET A   2      12.877  45.070   9.309  0.00  0.00    -0.139 S 
ATOM     77  CE  MET A   2      14.413  44.370   8.692  0.00  0.00    +0.069 C 
ENDBRANCH  75  76
ENDBRANCH  74  75
ENDBRANCH  58  74
ENDBRANCH  54  58
ENDBRANCH  53  56
BRANCH  53  78
ATOM     78  CB  ILE A   3      14.173  38.458  14.454  0.00  0.00    +0.027 C 
ATOM     79  CG2 ILE A   3      13.176  38.876  15.516  0.00  0.00    +0.002 C 
BRANCH  78  80
ATOM     80  CG1 ILE A   3      13.589  37.492  13.412  0.00  0.00    +0.002 C 
ATOM     81  CD1 ILE A   3      12.943  36.252  13.945  0.00  0.00    +0.000 C 
ENDBRANCH  78  80
ENDBRANCH  53  78
ENDBRANCH  49  53
ENDBRANCH  48  50
ENDBRANCH  44  48
ENDBRANCH  43  46
ENDBRANCH   1  43
TORSDOF 35
REMARK  Name = ../refined-set-2016/1sdu/1sdu_pocket.pdb
REMARK  239 active torsions:
REMARK  status: ('A' for Active; 'I' for Inactive)
REMARK    1  A    between atoms: _1  and  _3
REMARK    2  A    between atoms: _3  and  _4
REMARK    3  A    between atoms: _3  and  _6
REMARK    4  A    between atoms: _6  and  _7
REMARK    5  A    between atoms: _7  and  _8
REMARK    6  A    between atoms: _8  and  _9
REMARK    7  A    between atoms: _18  and  _20
REMARK    8  A    between atoms: _20  and  _21
REMARK    9  A    between atoms: _20  and  _23
REMARK   10  A    between atoms: _23  and  _24
REMARK   11  A    between atoms: _27  and  _29
REMARK   12  A    between atoms: _29  and  _30
REMARK   13  A    between atoms: _29  and  _32
REMARK   14  A    between atoms: _32  and  _33
REMARK   15  A    between atoms: _36  and  _38
REMARK   16  A    between atoms: _38  and  _39
REMARK   17  A    between atoms: _38  and  _41
REMARK   18  A    between atoms: _41  and  _42
REMARK   19  A    between atoms: _45  and  _47
REMARK   20  A    between atoms: _47  and  _48
REMARK   21  A    between atoms: _47  and  _50
REMARK   22  A    between atoms: _50  and  _51
REMARK   23  A    between atoms: _54  and  _56
REMARK   24  A    between atoms: _56  and  _57
REMARK   25  A    between atoms: _56  and  _59
REMARK   26  A    between atoms: _59  and  _60
REMARK   27  A    between atoms: _63  and  _65
REMARK   28  A    between atoms: _65  and  _66
REMARK   29  A    between atoms: _68  and  _70
REMARK   30  A    between atoms: _70  and  _71
REMARK   31  A    between atoms: _74  and  _76
REMARK   32  A    between atoms: _76  and  _77
REMARK   33  A    between atoms: _76  and  _79
REMARK   34  A    between atoms: _79  and  _80
REMARK   35  A    between atoms: _83  and  _85
REMARK   36  A    between atoms: _85  and  _86
REMARK   37  A    between atoms: _85  and  _88
REMARK   38  A    between atoms: _88  and  _89
REMARK   39  A    between atoms: _92  and  _94
REMARK   40  A    between atoms: _94  and  _95
REMARK   41  A    between atoms: _94  and  _97
REMARK   42  A    between atoms: _97  and  _98
REMARK   43  A    between atoms: _101  and  _103
REMARK   44  A    between atoms: _103  and  _104
REMARK   45  A    between atoms: _103  and  _106
REMARK   46  A    between atoms: _109  and  _111
REMARK   47  A    between atoms: _111  and  _112
REMARK   48  A    between atoms: _111  and  _114
REMARK   49  A    between atoms: _115  and  _116
REMARK   50  A    between atoms: _116  and  _117
REMARK   51  A    between atoms: _117  and  _118
REMARK   52  A    between atoms: _122  and  _124
REMARK   53  A    between atoms: _124  and  _125
REMARK   54  A    between atoms: _124  and  _127
REMARK   55  A    between atoms: _127  and  _128
REMARK   56  A    between atoms: _128  and  _129
REMARK   57  A    between atoms: _131  and  _133
REMARK   58  A    between atoms: _133  and  _134
REMARK   59  A    between atoms: _133  and  _136
REMARK   60  A    between atoms: _136  and  _137
REMARK   61  A    between atoms: _140  and  _142
REMARK   62  A    between atoms: _142  and  _143
REMARK   63  A    between atoms: _145  and  _147
REMARK   64  A    between atoms: _147  and  _148
REMARK   65  A    between atoms: _150  and  _152
REMARK   66  A    between atoms: _152  and  _153
REMARK   67  A    between atoms: _152  and  _155
REMARK   68  A    between atoms: _155  and  _156
REMARK   69  A    between atoms: _159  and  _161
REMARK   70  A    between atoms: _161  and  _162
REMARK   71  A    between atoms: _164  and  _166
REMARK   72  A    between atoms: _166  and  _167
REMARK   73  A    between atoms: _169  and  _171
REMARK   74  A    between atoms: _171  and  _172
REMARK   75  A    between atoms: _171  and  _174
REMARK   76  A    between atoms: _174  and  _175
REMARK   77  A    between atoms: _181  and  _183
REMARK   78  A    between atoms: _183  and  _184
REMARK   79  A    between atoms: _183  and  _186
REMARK   80  A    between atoms: _186  and  _187
REMARK   81  A    between atoms: _190  and  _192
REMARK   82  A    between atoms: _192  and  _193
REMARK   83  A    between atoms: _192  and  _195
REMARK   84  A    between atoms: _198  and  _200
REMARK   85  A    between atoms: _200  and  _201
REMARK   86  A    between atoms: _200  and  _203
REMARK   87  A    between atoms: _203  and  _204
REMARK   88  A    between atoms: _207  and  _209
REMARK   89  A    between atoms: _209  and  _210
REMARK   90  A    between atoms: _209  and  _212
REMARK   91  A    between atoms: _212  and  _213
REMARK   92  A    between atoms: _217  and  _218
REMARK   93  A    between atoms: _223  and  _225
REMARK   94  A    between atoms: _225  and  _226
REMARK   95  A    between atoms: _225  and  _228
REMARK   96  A    between atoms: _231  and  _233
REMARK   97  A    between atoms: _233  and  _234
REMARK   98  A    between atoms: _233  and  _236
REMARK   99  A    between atoms: _236  and  _237
REMARK  100  A    between atoms: _242  and  _244
REMARK  101  A    between atoms: _244  and  _245
REMARK  102  A    between atoms: _244  and  _247
REMARK  103  A    between atoms: _247  and  _248
REMARK  104  A    between atoms: _251  and  _253
REMARK  105  A    between atoms: _253  and  _254
REMARK  106  A    between atoms: _253  and  _256
REMARK  107  A    between atoms: _256  and  _257
REMARK  108  A    between atoms: _260  and  _262
REMARK  109  A    between atoms: _262  and  _263
REMARK  110  A    between atoms: _265  and  _267
REMARK  111  A    between atoms: _267  and  _268
REMARK  112  A    between atoms: _267  and  _270
REMARK  113  A    between atoms: _270  and  _271
REMARK  114  A    between atoms: _271  and  _272
REMARK  115  A    between atoms: _272  and  _273
REMARK  116  A    between atoms: _282  and  _284
REMARK  117  A    between atoms: _284  and  _285
REMARK  118  A    between atoms: _284  and  _287
REMARK  119  A    between atoms: _287  and  _288
REMARK  120  A    between atoms: _293  and  _295
REMARK  121  A    between atoms: _295  and  _296
REMARK  122  A    between atoms: _295  and  _298
REMARK  123  A    between atoms: _298  and  _299
REMARK  124  A    between atoms: _299  and  _300
REMARK  125  A    between atoms: _300  and  _301
REMARK  126  A    between atoms: _310  and  _312
REMARK  127  A    between atoms: _312  and  _313
REMARK  128  A    between atoms: _312  and  _315
REMARK  129  A    between atoms: _315  and  _316
REMARK  130  A    between atoms: _319  and  _321
REMARK  131  A    between atoms: _321  and  _322
REMARK  132  A    between atoms: _321  and  _324
REMARK  133  A    between atoms: _324  and  _325
REMARK  134  A    between atoms: _328  and  _330
REMARK  135  A    between atoms: _330  and  _331
REMARK  136  A    between atoms: _330  and  _333
REMARK  137  A    between atoms: _333  and  _334
REMARK  138  A    between atoms: _337  and  _339
REMARK  139  A    between atoms: _339  and  _340
REMARK  140  A    between atoms: _339  and  _342
REMARK  141  A    between atoms: _342  and  _343
REMARK  142  A    between atoms: _346  and  _348
REMARK  143  A    between atoms: _348  and  _349
REMARK  144  A    between atoms: _351  and  _353
REMARK  145  A    between atoms: _353  and  _354
REMARK  146  A    between atoms: _357  and  _359
REMARK  147  A    between atoms: _359  and  _360
REMARK  148  A    between atoms: _359  and  _362
REMARK  149  A    between atoms: _362  and  _363
REMARK  150  A    between atoms: _366  and  _368
REMARK  151  A    between atoms: _368  and  _369
REMARK  152  A    between atoms: _368  and  _371
REMARK  153  A    between atoms: _371  and  _372
REMARK  154  A    between atoms: _375  and  _377
REMARK  155  A    between atoms: _377  and  _378
REMARK  156  A    between atoms: _377  and  _380
REMARK  157  A    between atoms: _380  and  _381
REMARK  158  A    between atoms: _384  and  _386
REMARK  159  A    between atoms: _386  and  _387
REMARK  160  A    between atoms: _386  and  _389
REMARK  161  A    between atoms: _392  and  _394
REMARK  162  A    between atoms: _394  and  _395
REMARK  163  A    between atoms: _394  and  _397
REMARK  164  A    between atoms: _397  and  _398
REMARK  165  A    between atoms: _401  and  _403
REMARK  166  A    between atoms: _403  and  _404
REMARK  167  A    between atoms: _403  and  _406
REMARK  168  A    between atoms: _406  and  _407
REMARK  169  A    between atoms: _407  and  _408
REMARK  170  A    between atoms: _408  and  _409
REMARK  171  A    between atoms: _409  and  _410
REMARK  172  A    between atoms: _414  and  _416
REMARK  173  A    between atoms: _416  and  _417
REMARK  174  A    between atoms: _416  and  _419
REMARK  175  A    between atoms: _419  and  _420
REMARK  176  A    between atoms: _420  and  _421
REMARK  177  A    between atoms: _423  and  _425
REMARK  178  A    between atoms: _425  and  _426
REMARK  179  A    between atoms: _425  and  _428
REMARK  180  A    between atoms: _428  and  _429
REMARK  181  A    between atoms: _432  and  _434
REMARK  182  A    between atoms: _434  and  _435
REMARK  183  A    between atoms: _437  and  _439
REMARK  184  A    between atoms: _439  and  _440
REMARK  185  A    between atoms: _442  and  _444
REMARK  186  A    between atoms: _444  and  _445
REMARK  187  A    between atoms: _444  and  _447
REMARK  188  A    between atoms: _447  and  _448
REMARK  189  A    between atoms: _451  and  _453
REMARK  190  A    between atoms: _453  and  _454
REMARK  191  A    between atoms: _456  and  _458
REMARK  192  A    between atoms: _458  and  _459
REMARK  193  A    between atoms: _461  and  _463
REMARK  194  A    between atoms: _463  and  _464
REMARK  195  A    between atoms: _463  and  _466
REMARK  196  A    between atoms: _466  and  _467
REMARK  197  A    between atoms: _473  and  _475
REMARK  198  A    between atoms: _475  and  _476
REMARK  199  A    between atoms: _475  and  _478
REMARK  200  A    between atoms: _478  and  _479
REMARK  201  A    between atoms: _482  and  _484
REMARK  202  A    between atoms: _484  and  _485
REMARK  203  A    between atoms: _484  and  _487
REMARK  204  A    between atoms: _490  and  _492
REMARK  205  A    between atoms: _492  and  _493
REMARK  206  A    between atoms: _492  and  _495
REMARK  207  A    between atoms: _495  and  _496
REMARK  208  A    between atoms: _499  and  _501
REMARK  209  A    between atoms: _501  and  _502
REMARK  210  A    between atoms: _501  and  _504
REMARK  211  A    between atoms: _504  and  _505
REMARK  212  A    between atoms: _509  and  _510
REMARK  213  A    between atoms: _515  and  _517
REMARK  214  A    between atoms: _517  and  _518
REMARK  215  A    between atoms: _517  and  _520
REMARK  216  A    between atoms: _523  and  _525
REMARK  217  A    between atoms: _525  and  _526
REMARK  218  A    between atoms: _525  and  _528
REMARK  219  A    between atoms: _528  and  _529
REMARK  220  A    between atoms: _534  and  _536
REMARK  221  A    between atoms: _536  and  _537
REMARK  222  A    between atoms: _536  and  _539
REMARK  223  A    between atoms: _539  and  _540
REMARK  224  A    between atoms: _543  and  _545
REMARK  225  A    between atoms: _545  and  _546
REMARK  226  A    between atoms: _545  and  _548
REMARK  227  A    between atoms: _548  and  _549
REMARK  228  A    between atoms: _552  and  _554
REMARK  229  A    between atoms: _554  and  _555
REMARK  230  A    between atoms: _557  and  _559
REMARK  231  A    between atoms: _559  and  _560
REMARK  232  A    between atoms: _559  and  _562
REMARK  233  A    between atoms: _562  and  _563
REMARK  234  A    between atoms: _563  and  _564
REMARK  235  A    between atoms: _564  and  _565
REMARK  236  A    between atoms: _574  and  _576
REMARK  237  A    between atoms: _576  and  _577
REMARK  238  A    between atoms: _576  and  _579
REMARK  239  A    between atoms: _579  and  _580
REMARK                            x       y       z     vdW  Elec       q    Type
REMARK                         _______ _______ _______ _____ _____    ______ ____
ROOT
ATOM      1  CA  VAL A   1       8.031  38.659  11.447  0.00  0.00    +0.133 C 
ENDROOT
BRANCH   1   2
ATOM      2  CB  VAL A   1       8.759  37.800  12.482  0.00  0.00    +0.023 C 
ATOM      3  CG2 VAL A   1       9.387  38.683  13.585  0.00  0.00    +0.002 C 
ATOM      4  CG1 VAL A   1       9.822  36.941  11.818  0.00  0.00    +0.002 C 
ENDBRANCH   1   2
BRANCH   1   5
ATOM      5  N   VAL A   1       8.905  39.585  10.761  0.00  0.00    -0.239 NA
ATOM      6  H   VAL A   1       9.158  40.471  11.243  0.00  0.00    +0.142 HD
ENDBRANCH   1   5
BRANCH   1   7
ATOM      7  C   VAL A   1       6.887  39.461  12.104  0.00  0.00    +0.224 C 
ATOM      8  O   VAL A   1       6.963  40.663  12.313  0.00  0.00    -0.287 OA
ENDBRANCH   1   7
TORSDOF 3
REMARK  Name = ../refined-set-2016/1sdu/1sdu_pocket.pdb
REMARK  239 active torsions:
REMARK  status: ('A' for Active; 'I' for Inactive)
REMARK    1  A    between atoms: _1  and  _3
REMARK    2  A    between atoms: _3  and  _4
REMARK    3  A    between atoms: _3  and  _6
REMARK    4  A    between atoms: _6  and  _7
REMARK    5  A    between atoms: _7  and  _8
REMARK    6  A    between atoms: _8  and  _9
REMARK    7  A    between atoms: _18  and  _20
REMARK    8  A    between atoms: _20  and  _21
REMARK    9  A    between atoms: _20  and  _23
REMARK   10  A    between atoms: _23  and  _24
REMARK   11  A    between atoms: _27  and  _29
REMARK   12  A    between atoms: _29  and  _30
REMARK   13  A    between atoms: _29  and  _32
REMARK   14  A    between atoms: _32  and  _33
REMARK   15  A    between atoms: _36  and  _38
REMARK   16  A    between atoms: _38  and  _39
REMARK   17  A    between atoms: _38  and  _41
REMARK   18  A    between atoms: _41  and  _42
REMARK   19  A    between atoms: _45  and  _47
REMARK   20  A    between atoms: _47  and  _48
REMARK   21  A    between atoms: _47  and  _50
REMARK   22  A    between atoms: _50  and  _51
REMARK   23  A    between atoms: _54  and  _56
REMARK   24  A    between atoms: _56  and  _57
REMARK   25  A    between atoms: _56  and  _59
REMARK   26  A    between atoms: _59  and  _60
REMARK   27  A    between atoms: _63  and  _65
REMARK   28  A    between atoms: _65  and  _66
REMARK   29  A    between atoms: _68  and  _70
REMARK   30  A    between atoms: _70  and  _71
REMARK   31  A    between atoms: _74  and  _76
REMARK   32  A    between atoms: _76  and  _77
REMARK   33  A    between atoms: _76  and  _79
REMARK   34  A    between atoms: _79  and  _80
REMARK   35  A    between atoms: _83  and  _85
REMARK   36  A    between atoms: _85  and  _86
REMARK   37  A    between atoms: _85  and  _88
REMARK   38  A    between atoms: _88  and  _89
REMARK   39  A    between atoms: _92  and  _94
REMARK   40  A    between atoms: _94  and  _95
REMARK   41  A    between atoms: _94  and  _97
REMARK   42  A    between atoms: _97  and  _98
REMARK   43  A    between atoms: _101  and  _103
REMARK   44  A    between atoms: _103  and  _104
REMARK   45  A    between atoms: _103  and  _106
REMARK   46  A    between atoms: _109  and  _111
REMARK   47  A    between atoms: _111  and  _112
REMARK   48  A    between atoms: _111  and  _114
REMARK   49  A    between atoms: _115  and  _116
REMARK   50  A    between atoms: _116  and  _117
REMARK   51  A    between atoms: _117  and  _118
REMARK   52  A    between atoms: _122  and  _124
REMARK   53  A    between atoms: _124  and  _125
REMARK   54  A    between atoms: _124  and  _127
REMARK   55  A    between atoms: _127  and  _128
REMARK   56  A    between atoms: _128  and  _129
REMARK   57  A    between atoms: _131  and  _133
REMARK   58  A    between atoms: _133  and  _134
REMARK   59  A    between atoms: _133  and  _136
REMARK   60  A    between atoms: _136  and  _137
REMARK   61  A    between atoms: _140  and  _142
REMARK   62  A    between atoms: _142  and  _143
REMARK   63  A    between atoms: _145  and  _147
REMARK   64  A    between atoms: _147  and  _148
REMARK   65  A    between atoms: _150  and  _152
REMARK   66  A    between atoms: _152  and  _153
REMARK   67  A    between atoms: _152  and  _155
REMARK   68  A    between atoms: _155  and  _156
REMARK   69  A    between atoms: _159  and  _161
REMARK   70  A    between atoms: _161  and  _162
REMARK   71  A    between atoms: _164  and  _166
REMARK   72  A    between atoms: _166  and  _167
REMARK   73  A    between atoms: _169  and  _171
REMARK   74  A    between atoms: _171  and  _172
REMARK   75  A    between atoms: _171  and  _174
REMARK   76  A    between atoms: _174  and  _175
REMARK   77  A    between atoms: _181  and  _183
REMARK   78  A    between atoms: _183  and  _184
REMARK   79  A    between atoms: _183  and  _186
REMARK   80  A    between atoms: _186  and  _187
REMARK   81  A    between atoms: _190  and  _192
REMARK   82  A    between atoms: _192  and  _193
REMARK   83  A    between atoms: _192  and  _195
REMARK   84  A    between atoms: _198  and  _200
REMARK   85  A    between atoms: _200  and  _201
REMARK   86  A    between atoms: _200  and  _203
REMARK   87  A    between atoms: _203  and  _204
REMARK   88  A    between atoms: _207  and  _209
REMARK   89  A    between atoms: _209  and  _210
REMARK   90  A    between atoms: _209  and  _212
REMARK   91  A    between atoms: _212  and  _213
REMARK   92  A    between atoms: _217  and  _218
REMARK   93  A    between atoms: _223  and  _225
REMARK   94  A    between atoms: _225  and  _226
REMARK   95  A    between atoms: _225  and  _228
REMARK   96  A    between atoms: _231  and  _233
REMARK   97  A    between atoms: _233  and  _234
REMARK   98  A    between atoms: _233  and  _236
REMARK   99  A    between atoms: _236  and  _237
REMARK  100  A    between atoms: _242  and  _244
REMARK  101  A    between atoms: _244  and  _245
REMARK  102  A    between atoms: _244  and  _247
REMARK  103  A    between atoms: _247  and  _248
REMARK  104  A    between atoms: _251  and  _253
REMARK  105  A    between atoms: _253  and  _254
REMARK  106  A    between atoms: _253  and  _256
REMARK  107  A    between atoms: _256  and  _257
REMARK  108  A    between atoms: _260  and  _262
REMARK  109  A    between atoms: _262  and  _263
REMARK  110  A    between atoms: _265  and  _267
REMARK  111  A    between atoms: _267  and  _268
REMARK  112  A    between atoms: _267  and  _270
REMARK  113  A    between atoms: _270  and  _271
REMARK  114  A    between atoms: _271  and  _272
REMARK  115  A    between atoms: _272  and  _273
REMARK  116  A    between atoms: _282  and  _284
REMARK  117  A    between atoms: _284  and  _285
REMARK  118  A    between atoms: _284  and  _287
REMARK  119  A    between atoms: _287  and  _288
REMARK  120  A    between atoms: _293  and  _295
REMARK  121  A    between atoms: _295  and  _296
REMARK  122  A    between atoms: _295  and  _298
REMARK  123  A    between atoms: _298  and  _299
REMARK  124  A    between atoms: _299  and  _300
REMARK  125  A    between atoms: _300  and  _301
REMARK  126  A    between atoms: _310  and  _312
REMARK  127  A    between atoms: _312  and  _313
REMARK  128  A    between atoms: _312  and  _315
REMARK  129  A    between atoms: _315  and  _316
REMARK  130  A    between atoms: _319  and  _321
REMARK  131  A    between atoms: _321  and  _322
REMARK  132  A    between atoms: _321  and  _324
REMARK  133  A    between atoms: _324  and  _325
REMARK  134  A    between atoms: _328  and  _330
REMARK  135  A    between atoms: _330  and  _331
REMARK  136  A    between atoms: _330  and  _333
REMARK  137  A    between atoms: _333  and  _334
REMARK  138  A    between atoms: _337  and  _339
REMARK  139  A    between atoms: _339  and  _340
REMARK  140  A    between atoms: _339  and  _342
REMARK  141  A    between atoms: _342  and  _343
REMARK  142  A    between atoms: _346  and  _348
REMARK  143  A    between atoms: _348  and  _349
REMARK  144  A    between atoms: _351  and  _353
REMARK  145  A    between atoms: _353  and  _354
REMARK  146  A    between atoms: _357  and  _359
REMARK  147  A    between atoms: _359  and  _360
REMARK  148  A    between atoms: _359  and  _362
REMARK  149  A    between atoms: _362  and  _363
REMARK  150  A    between atoms: _366  and  _368
REMARK  151  A    between atoms: _368  and  _369
REMARK  152  A    between atoms: _368  and  _371
REMARK  153  A    between atoms: _371  and  _372
REMARK  154  A    between atoms: _375  and  _377
REMARK  155  A    between atoms: _377  and  _378
REMARK  156  A    between atoms: _377  and  _380
REMARK  157  A    between atoms: _380  and  _381
REMARK  158  A    between atoms: _384  and  _386
REMARK  159  A    between atoms: _386  and  _387
REMARK  160  A    between atoms: _386  and  _389
REMARK  161  A    between atoms: _392  and  _394
REMARK  162  A    between atoms: _394  and  _395
REMARK  163  A    between atoms: _394  and  _397
REMARK  164  A    between atoms: _397  and  _398
REMARK  165  A    between atoms: _401  and  _403
REMARK  166  A    between atoms: _403  and  _404
REMARK  167  A    between atoms: _403  and  _406
REMARK  168  A    between atoms: _406  and  _407
REMARK  169  A    between atoms: _407  and  _408
REMARK  170  A    between atoms: _408  and  _409
REMARK  171  A    between atoms: _409  and  _410
REMARK  172  A    between atoms: _414  and  _416
REMARK  173  A    between atoms: _416  and  _417
REMARK  174  A    between atoms: _416  and  _419
REMARK  175  A    between atoms: _419  and  _420
REMARK  176  A    between atoms: _420  and  _421
REMARK  177  A    between atoms: _423  and  _425
REMARK  178  A    between atoms: _425  and  _426
REMARK  179  A    between atoms: _425  and  _428
REMARK  180  A    between atoms: _428  and  _429
REMARK  181  A    between atoms: _432  and  _434
REMARK  182  A    between atoms: _434  and  _435
REMARK  183  A    between atoms: _437  and  _439
REMARK  184  A    between atoms: _439  and  _440
REMARK  185  A    between atoms: _442  and  _444
REMARK  186  A    between atoms: _444  and  _445
REMARK  187  A    between atoms: _444  and  _447
REMARK  188  A    between atoms: _447  and  _448
REMARK  189  A    between atoms: _451  and  _453
REMARK  190  A    between atoms: _453  and  _454
REMARK  191  A    between atoms: _456  and  _458
REMARK  192  A    between atoms: _458  and  _459
REMARK  193  A    between atoms: _461  and  _463
REMARK  194  A    between atoms: _463  and  _464
REMARK  195  A    between atoms: _463  and  _466
REMARK  196  A    between atoms: _466  and  _467
REMARK  197  A    between atoms: _473  and  _475
REMARK  198  A    between atoms: _475  and  _476
REMARK  199  A    between atoms: _475  and  _478
REMARK  200  A    between atoms: _478  and  _479
REMARK  201  A    between atoms: _482  and  _484
REMARK  202  A    between atoms: _484  and  _485
REMARK  203  A    between atoms: _484  and  _487
REMARK  204  A    between atoms: _490  and  _492
REMARK  205  A    between atoms: _492  and  _493
REMARK  206  A    between atoms: _492  and  _495
REMARK  207  A    between atoms: _495  and  _496
REMARK  208  A    between atoms: _499  and  _501
REMARK  209  A    between atoms: _501  and  _502
REMARK  210  A    between atoms: _501  and  _504
REMARK  211  A    between atoms: _504  and  _505
REMARK  212  A    between atoms: _509  and  _510
REMARK  213  A    between atoms: _515  and  _517
REMARK  214  A    between atoms: _517  and  _518
REMARK  215  A    between atoms: _517  and  _520
REMARK  216  A    between atoms: _523  and  _525
REMARK  217  A    between atoms: _525  and  _526
REMARK  218  A    between atoms: _525  and  _528
REMARK  219  A    between atoms: _528  and  _529
REMARK  220  A    between atoms: _534  and  _536
REMARK  221  A    between atoms: _536  and  _537
REMARK  222  A    between atoms: _536  and  _539
REMARK  223  A    between atoms: _539  and  _540
REMARK  224  A    between atoms: _543  and  _545
REMARK  225  A    between atoms: _545  and  _546
REMARK  226  A    between atoms: _545  and  _548
REMARK  227  A    between atoms: _548  and  _549
REMARK  228  A    between atoms: _552  and  _554
REMARK  229  A    between atoms: _554  and  _555
REMARK  230  A    between atoms: _557  and  _559
REMARK  231  A    between atoms: _559  and  _560
REMARK  232  A    between atoms: _559  and  _562
REMARK  233  A    between atoms: _562  and  _563
REMARK  234  A    between atoms: _563  and  _564
REMARK  235  A    between atoms: _564  and  _565
REMARK  236  A    between atoms: _574  and  _576
REMARK  237  A    between atoms: _576  and  _577
REMARK  238  A    between atoms: _576  and  _579
REMARK  239  A    between atoms: _579  and  _580
REMARK                            x       y       z     vdW  Elec       q    Type
REMARK                         _______ _______ _______ _____ _____    ______ ____
ROOT
ATOM      1  CA  LEU A   1       7.135  35.427  16.333  0.00  0.00    +0.133 C 
ENDROOT
BRANCH   1   2
ATOM      2  N   LEU A   1       6.957  34.706  17.580  0.00  0.00    -0.239 NA
ATOM      3  H   LEU A   1       7.684  34.022  17.872  0.00  0.00    +0.142 HD
ENDBRANCH   1   2
BRANCH   1   4
ATOM      4  C   LEU A   1       6.745  34.494  15.186  0.00  0.00    +0.224 C 
ATOM      5  O   LEU A   1       7.107  33.313  15.208  0.00  0.00    -0.287 OA
ENDBRANCH   1   4
BRANCH   1   6
ATOM      6  CB  LEU A   1       8.578  35.877  16.193  0.00  0.00    +0.025 C 
BRANCH   6   7
ATOM      7  CG  LEU A   1       9.172  36.587  17.411  0.00  0.00    +0.002 C 
ATOM      8  CD2 LEU A   1       8.316  37.784  17.792  0.00  0.00    +0.000 C 
ATOM      9  CD1 LEU A   1      10.606  36.978  17.153  0.00  0.00    +0.000 C 
ENDBRANCH   6   7
ENDBRANCH   1   6
TORSDOF 4
REMARK  Name = ../refined-set-2016/1sdu/1sdu_pocket.pdb
REMARK  239 active torsions:
REMARK  status: ('A' for Active; 'I' for Inactive)
REMARK    1  A    between atoms: _1  and  _3
REMARK    2  A    between atoms: _3  and  _4
REMARK    3  A    between atoms: _3  and  _6
REMARK    4  A    between atoms: _6  and  _7
REMARK    5  A    between atoms: _7  and  _8
REMARK    6  A    between atoms: _8  and  _9
REMARK    7  A    between atoms: _18  and  _20
REMARK    8  A    between atoms: _20  and  _21
REMARK    9  A    between atoms: _20  and  _23
REMARK   10  A    between atoms: _23  and  _24
REMARK   11  A    between atoms: _27  and  _29
REMARK   12  A    between atoms: _29  and  _30
REMARK   13  A    between atoms: _29  and  _32
REMARK   14  A    between atoms: _32  and  _33
REMARK   15  A    between atoms: _36  and  _38
REMARK   16  A    between atoms: _38  and  _39
REMARK   17  A    between atoms: _38  and  _41
REMARK   18  A    between atoms: _41  and  _42
REMARK   19  A    between atoms: _45  and  _47
REMARK   20  A    between atoms: _47  and  _48
REMARK   21  A    between atoms: _47  and  _50
REMARK   22  A    between atoms: _50  and  _51
REMARK   23  A    between atoms: _54  and  _56
REMARK   24  A    between atoms: _56  and  _57
REMARK   25  A    between atoms: _56  and  _59
REMARK   26  A    between atoms: _59  and  _60
REMARK   27  A    between atoms: _63  and  _65
REMARK   28  A    between atoms: _65  and  _66
REMARK   29  A    between atoms: _68  and  _70
REMARK   30  A    between atoms: _70  and  _71
REMARK   31  A    between atoms: _74  and  _76
REMARK   32  A    between atoms: _76  and  _77
REMARK   33  A    between atoms: _76  and  _79
REMARK   34  A    between atoms: _79  and  _80
REMARK   35  A    between atoms: _83  and  _85
REMARK   36  A    between atoms: _85  and  _86
REMARK   37  A    between atoms: _85  and  _88
REMARK   38  A    between atoms: _88  and  _89
REMARK   39  A    between atoms: _92  and  _94
REMARK   40  A    between atoms: _94  and  _95
REMARK   41  A    between atoms: _94  and  _97
REMARK   42  A    between atoms: _97  and  _98
REMARK   43  A    between atoms: _101  and  _103
REMARK   44  A    between atoms: _103  and  _104
REMARK   45  A    between atoms: _103  and  _106
REMARK   46  A    between atoms: _109  and  _111
REMARK   47  A    between atoms: _111  and  _112
REMARK   48  A    between atoms: _111  and  _114
REMARK   49  A    between atoms: _115  and  _116
REMARK   50  A    between atoms: _116  and  _117
REMARK   51  A    between atoms: _117  and  _118
REMARK   52  A    between atoms: _122  and  _124
REMARK   53  A    between atoms: _124  and  _125
REMARK   54  A    between atoms: _124  and  _127
REMARK   55  A    between atoms: _127  and  _128
REMARK   56  A    between atoms: _128  and  _129
REMARK   57  A    between atoms: _131  and  _133
REMARK   58  A    between atoms: _133  and  _134
REMARK   59  A    between atoms: _133  and  _136
REMARK   60  A    between atoms: _136  and  _137
REMARK   61  A    between atoms: _140  and  _142
REMARK   62  A    between atoms: _142  and  _143
REMARK   63  A    between atoms: _145  and  _147
REMARK   64  A    between atoms: _147  and  _148
REMARK   65  A    between atoms: _150  and  _152
REMARK   66  A    between atoms: _152  and  _153
REMARK   67  A    between atoms: _152  and  _155
REMARK   68  A    between atoms: _155  and  _156
REMARK   69  A    between atoms: _159  and  _161
REMARK   70  A    between atoms: _161  and  _162
REMARK   71  A    between atoms: _164  and  _166
REMARK   72  A    between atoms: _166  and  _167
REMARK   73  A    between atoms: _169  and  _171
REMARK   74  A    between atoms: _171  and  _172
REMARK   75  A    between atoms: _171  and  _174
REMARK   76  A    between atoms: _174  and  _175
REMARK   77  A    between atoms: _181  and  _183
REMARK   78  A    between atoms: _183  and  _184
REMARK   79  A    between atoms: _183  and  _186
REMARK   80  A    between atoms: _186  and  _187
REMARK   81  A    between atoms: _190  and  _192
REMARK   82  A    between atoms: _192  and  _193
REMARK   83  A    between atoms: _192  and  _195
REMARK   84  A    between atoms: _198  and  _200
REMARK   85  A    between atoms: _200  and  _201
REMARK   86  A    between atoms: _200  and  _203
REMARK   87  A    between atoms: _203  and  _204
REMARK   88  A    between atoms: _207  and  _209
REMARK   89  A    between atoms: _209  and  _210
REMARK   90  A    between atoms: _209  and  _212
REMARK   91  A    between atoms: _212  and  _213
REMARK   92  A    between atoms: _217  and  _218
REMARK   93  A    between atoms: _223  and  _225
REMARK   94  A    between atoms: _225  and  _226
REMARK   95  A    between atoms: _225  and  _228
REMARK   96  A    between atoms: _231  and  _233
REMARK   97  A    between atoms: _233  and  _234
REMARK   98  A    between atoms: _233  and  _236
REMARK   99  A    between atoms: _236  and  _237
REMARK  100  A    between atoms: _242  and  _244
REMARK  101  A    between atoms: _244  and  _245
REMARK  102  A    between atoms: _244  and  _247
REMARK  103  A    between atoms: _247  and  _248
REMARK  104  A    between atoms: _251  and  _253
REMARK  105  A    between atoms: _253  and  _254
REMARK  106  A    between atoms: _253  and  _256
REMARK  107  A    between atoms: _256  and  _257
REMARK  108  A    between atoms: _260  and  _262
REMARK  109  A    between atoms: _262  and  _263
REMARK  110  A    between atoms: _265  and  _267
REMARK  111  A    between atoms: _267  and  _268
REMARK  112  A    between atoms: _267  and  _270
REMARK  113  A    between atoms: _270  and  _271
REMARK  114  A    between atoms: _271  and  _272
REMARK  115  A    between atoms: _272  and  _273
REMARK  116  A    between atoms: _282  and  _284
REMARK  117  A    between atoms: _284  and  _285
REMARK  118  A    between atoms: _284  and  _287
REMARK  119  A    between atoms: _287  and  _288
REMARK  120  A    between atoms: _293  and  _295
REMARK  121  A    between atoms: _295  and  _296
REMARK  122  A    between atoms: _295  and  _298
REMARK  123  A    between atoms: _298  and  _299
REMARK  124  A    between atoms: _299  and  _300
REMARK  125  A    between atoms: _300  and  _301
REMARK  126  A    between atoms: _310  and  _312
REMARK  127  A    between atoms: _312  and  _313
REMARK  128  A    between atoms: _312  and  _315
REMARK  129  A    between atoms: _315  and  _316
REMARK  130  A    between atoms: _319  and  _321
REMARK  131  A    between atoms: _321  and  _322
REMARK  132  A    between atoms: _321  and  _324
REMARK  133  A    between atoms: _324  and  _325
REMARK  134  A    between atoms: _328  and  _330
REMARK  135  A    between atoms: _330  and  _331
REMARK  136  A    between atoms: _330  and  _333
REMARK  137  A    between atoms: _333  and  _334
REMARK  138  A    between atoms: _337  and  _339
REMARK  139  A    between atoms: _339  and  _340
REMARK  140  A    between atoms: _339  and  _342
REMARK  141  A    between atoms: _342  and  _343
REMARK  142  A    between atoms: _346  and  _348
REMARK  143  A    between atoms: _348  and  _349
REMARK  144  A    between atoms: _351  and  _353
REMARK  145  A    between atoms: _353  and  _354
REMARK  146  A    between atoms: _357  and  _359
REMARK  147  A    between atoms: _359  and  _360
REMARK  148  A    between atoms: _359  and  _362
REMARK  149  A    between atoms: _362  and  _363
REMARK  150  A    between atoms: _366  and  _368
REMARK  151  A    between atoms: _368  and  _369
REMARK  152  A    between atoms: _368  and  _371
REMARK  153  A    between atoms: _371  and  _372
REMARK  154  A    between atoms: _375  and  _377
REMARK  155  A    between atoms: _377  and  _378
REMARK  156  A    between atoms: _377  and  _380
REMARK  157  A    between atoms: _380  and  _381
REMARK  158  A    between atoms: _384  and  _386
REMARK  159  A    between atoms: _386  and  _387
REMARK  160  A    between atoms: _386  and  _389
REMARK  161  A    between atoms: _392  and  _394
REMARK  162  A    between atoms: _394  and  _395
REMARK  163  A    between atoms: _394  and  _397
REMARK  164  A    between atoms: _397  and  _398
REMARK  165  A    between atoms: _401  and  _403
REMARK  166  A    between atoms: _403  and  _404
REMARK  167  A    between atoms: _403  and  _406
REMARK  168  A    between atoms: _406  and  _407
REMARK  169  A    between atoms: _407  and  _408
REMARK  170  A    between atoms: _408  and  _409
REMARK  171  A    between atoms: _409  and  _410
REMARK  172  A    between atoms: _414  and  _416
REMARK  173  A    between atoms: _416  and  _417
REMARK  174  A    between atoms: _416  and  _419
REMARK  175  A    between atoms: _419  and  _420
REMARK  176  A    between atoms: _420  and  _421
REMARK  177  A    between atoms: _423  and  _425
REMARK  178  A    between atoms: _425  and  _426
REMARK  179  A    between atoms: _425  and  _428
REMARK  180  A    between atoms: _428  and  _429
REMARK  181  A    between atoms: _432  and  _434
REMARK  182  A    between atoms: _434  and  _435
REMARK  183  A    between atoms: _437  and  _439
REMARK  184  A    between atoms: _439  and  _440
REMARK  185  A    between atoms: _442  and  _444
REMARK  186  A    between atoms: _444  and  _445
REMARK  187  A    between atoms: _444  and  _447
REMARK  188  A    between atoms: _447  and  _448
REMARK  189  A    between atoms: _451  and  _453
REMARK  190  A    between atoms: _453  and  _454
REMARK  191  A    between atoms: _456  and  _458
REMARK  192  A    between atoms: _458  and  _459
REMARK  193  A    between atoms: _461  and  _463
REMARK  194  A    between atoms: _463  and  _464
REMARK  195  A    between atoms: _463  and  _466
REMARK  196  A    between atoms: _466  and  _467
REMARK  197  A    between atoms: _473  and  _475
REMARK  198  A    between atoms: _475  and  _476
REMARK  199  A    between atoms: _475  and  _478
REMARK  200  A    between atoms: _478  and  _479
REMARK  201  A    between atoms: _482  and  _484
REMARK  202  A    between atoms: _484  and  _485
REMARK  203  A    between atoms: _484  and  _487
REMARK  204  A    between atoms: _490  and  _492
REMARK  205  A    between atoms: _492  and  _493
REMARK  206  A    between atoms: _492  and  _495
REMARK  207  A    between atoms: _495  and  _496
REMARK  208  A    between atoms: _499  and  _501
REMARK  209  A    between atoms: _501  and  _502
REMARK  210  A    between atoms: _501  and  _504
REMARK  211  A    between atoms: _504  and  _505
REMARK  212  A    between atoms: _509  and  _510
REMARK  213  A    between atoms: _515  and  _517
REMARK  214  A    between atoms: _517  and  _518
REMARK  215  A    between atoms: _517  and  _520
REMARK  216  A    between atoms: _523  and  _525
REMARK  217  A    between atoms: _525  and  _526
REMARK  218  A    between atoms: _525  and  _528
REMARK  219  A    between atoms: _528  and  _529
REMARK  220  A    between atoms: _534  and  _536
REMARK  221  A    between atoms: _536  and  _537
REMARK  222  A    between atoms: _536  and  _539
REMARK  223  A    between atoms: _539  and  _540
REMARK  224  A    between atoms: _543  and  _545
REMARK  225  A    between atoms: _545  and  _546
REMARK  226  A    between atoms: _545  and  _548
REMARK  227  A    between atoms: _548  and  _549
REMARK  228  A    between atoms: _552  and  _554
REMARK  229  A    between atoms: _554  and  _555
REMARK  230  A    between atoms: _557  and  _559
REMARK  231  A    between atoms: _559  and  _560
REMARK  232  A    between atoms: _559  and  _562
REMARK  233  A    between atoms: _562  and  _563
REMARK  234  A    between atoms: _563  and  _564
REMARK  235  A    between atoms: _564  and  _565
REMARK  236  A    between atoms: _574  and  _576
REMARK  237  A    between atoms: _576  and  _577
REMARK  238  A    between atoms: _576  and  _579
REMARK  239  A    between atoms: _579  and  _580
REMARK                            x       y       z     vdW  Elec       q    Type
REMARK                         _______ _______ _______ _____ _____    ______ ____
ROOT
ATOM      1  C   ILE A   5      11.913  27.860  17.909  0.00  0.00    +0.241 C 
ATOM      2  N   ILE A   6      12.177  27.059  18.915  0.00  0.00    -0.297 N 
ATOM      3  H   ILE A   6      12.649  26.154  18.713  0.00  0.00    +0.150 HD
ATOM      4  O   ILE A   5      11.228  28.879  18.034  0.00  0.00    -0.273 OA
ENDROOT
BRANCH   2   5
ATOM      5  CA  ILE A   6      11.844  27.370  20.301  0.00  0.00    +0.149 C 
BRANCH   5   6
ATOM      6  C   ILE A   6      13.094  28.001  20.942  0.00  0.00    +0.241 C 
ATOM      7  N   GLY A   7      12.987  29.256  21.290  0.00  0.00    -0.295 N 
ATOM      8  H   GLY A   7      12.076  29.746  21.179  0.00  0.00    +0.150 HD
ATOM      9  O   ILE A   6      14.116  27.320  21.074  0.00  0.00    -0.273 OA
BRANCH   7  10
ATOM     10  CA  GLY A   7      14.133  29.975  21.833  0.00  0.00    +0.176 C 
BRANCH  10  11
ATOM     11  C   GLY A   7      14.059  30.059  23.343  0.00  0.00    +0.243 C 
ATOM     12  O   GLY A   7      13.224  29.467  24.020  0.00  0.00    -0.273 OA
ATOM     13  N   ARG A   8      15.022  30.799  23.893  0.00  0.00    -0.297 N 
ATOM     14  H   ARG A   8      15.649  31.357  23.279  0.00  0.00    +0.150 HD
BRANCH  13  15
ATOM     15  CA  ARG A   8      15.214  30.843  25.334  0.00  0.00    +0.149 C 
BRANCH  15  16
ATOM     16  C   ARG A   8      14.028  31.384  26.089  0.00  0.00    +0.241 C 
ATOM     17  O   ARG A   8      13.810  30.984  27.255  0.00  0.00    -0.273 OA
ATOM     18  N   ASN A   9      13.280  32.290  25.448  0.00  0.00    -0.298 N 
ATOM     19  H   ASN A   9      13.505  32.563  24.470  0.00  0.00    +0.150 HD
BRANCH  18  20
ATOM     20  CA  ASN A   9      12.150  32.886  26.137  0.00  0.00    +0.146 C 
BRANCH  20  21
ATOM     21  C   ASN A   9      11.133  31.846  26.599  0.00  0.00    +0.227 C 
ATOM     22  O   ASN A   9      10.476  32.036  27.611  0.00  0.00    -0.286 OA
ENDBRANCH  20  21
BRANCH  20  23
ATOM     23  CB  ASN A   9      11.462  33.940  25.260  0.00  0.00    +0.112 C 
BRANCH  23  24
ATOM     24  CG  ASN A   9      10.748  33.373  24.069  0.00  0.00    +0.222 C 
ATOM     25  ND2 ASN A   9       9.461  33.716  23.986  0.00  0.00    -0.329 N 
ATOM     26 HD21 ASN A   9       9.048  34.361  24.689  0.00  0.00    +0.145 HD
ATOM     27 HD22 ASN A   9       8.871  33.338  23.218  0.00  0.00    +0.145 HD
ATOM     28  OD1 ASN A   9      11.312  32.618  23.281  0.00  0.00    -0.275 OA
ENDBRANCH  23  24
ENDBRANCH  20  23
ENDBRANCH  18  20
ENDBRANCH  15  16
BRANCH  15  29
ATOM     29  CB  ARG A   8      16.476  31.652  25.659  0.00  0.00    +0.033 C 
BRANCH  29  30
ATOM     30  CG  ARG A   8      17.760  31.023  25.231  0.00  0.00    +0.045 C 
BRANCH  30  31
ATOM     31  CD  ARG A   8      19.016  31.719  25.749  0.00  0.00    +0.174 C 
BRANCH  31  32
ATOM     32  NE  ARG A   8      19.081  33.079  25.295  0.00  0.00    -0.265 N 
ATOM     33  CZ  ARG A   8      18.705  34.173  25.927  0.00  0.00    +0.342 C 
ATOM     34  NH2 ARG A   8      18.245  34.134  27.185  0.00  0.00    -0.292 N 
ATOM     35 HH21 ARG A   8      18.178  33.225  27.686  0.00  0.00    +0.255 HD
ATOM     36 HH22 ARG A   8      17.955  35.013  27.660  0.00  0.00    +0.255 HD
ATOM     37  NH1 ARG A   8      18.817  35.354  25.301  0.00  0.00    -0.292 N 
ATOM     38 HH11 ARG A   8      18.525  36.228  25.783  0.00  0.00    +0.255 HD
ATOM     39 HH12 ARG A   8      19.195  35.396  24.333  0.00  0.00    +0.255 HD
ATOM     40  HE  ARG A   8      19.476  33.220  24.343  0.00  0.00    +0.259 HD
ENDBRANCH  31  32
ENDBRANCH  30  31
ENDBRANCH  29  30
ENDBRANCH  15  29
ENDBRANCH  13  15
ENDBRANCH  10  11
ENDBRANCH   7  10
ENDBRANCH   5   6
BRANCH   5  41
ATOM     41  CB  ILE A   6      11.377  26.161  21.099  0.00  0.00    +0.027 C 
ATOM     42  CG2 ILE A   6      10.984  26.558  22.499  0.00  0.00    +0.002 C 
BRANCH  41  43
ATOM     43  CG1 ILE A   6      10.269  25.400  20.390  0.00  0.00    +0.002 C 
ATOM     44  CD1 ILE A   6       9.053  26.252  20.107  0.00  0.00    +0.000 C 
ENDBRANCH  41  43
ENDBRANCH   5  41
ENDBRANCH   2   5
BRANCH   1  45
ATOM     45  CA  ILE A   5      12.466  27.517  16.542  0.00  0.00    +0.149 C 
BRANCH  45  47
ATOM     46  C   ASN A   4      11.218  26.163  14.932  0.00  0.00    +0.241 C 
ATOM     47  N   ILE A   5      11.389  27.312  15.580  0.00  0.00    -0.297 N 
ATOM     48  H   ILE A   5      10.729  28.094  15.394  0.00  0.00    +0.150 HD
ATOM     49  O   ASN A   4      11.836  25.114  15.134  0.00  0.00    -0.273 OA
BRANCH  46  50
ATOM     50  CA  ASN A   4      10.149  26.159  13.857  0.00  0.00    +0.158 C 
BRANCH  50  52
ATOM     51  C   VAL A   3      11.564  26.273  11.931  0.00  0.00    +0.241 C 
ATOM     52  N   ASN A   4      10.754  25.572  12.671  0.00  0.00    -0.297 N 
ATOM     53  H   ASN A   4      10.538  24.588  12.413  0.00  0.00    +0.150 HD
ATOM     54  O   VAL A   3      11.754  27.485  12.100  0.00  0.00    -0.273 OA
BRANCH  51  55
ATOM     55  CA  VAL A   3      12.324  25.549  10.820  0.00  0.00    +0.149 C 
BRANCH  55  57
ATOM     56  C   PRO A   2      12.259  25.985   8.408  0.00  0.00    +0.241 C 
ATOM     57  N   VAL A   3      12.334  26.445   9.672  0.00  0.00    -0.297 N 
ATOM     58  H   VAL A   3      12.401  27.470   9.833  0.00  0.00    +0.150 HD
ATOM     59  O   PRO A   2      12.065  24.795   8.132  0.00  0.00    -0.273 OA
BRANCH  56  66
ATOM     60  C   THR A   1      11.354  29.000   8.118  0.00  0.00    +0.244 C 
ATOM     61  O   THR A   1      10.277  28.400   7.996  0.00  0.00    -0.273 OA
ATOM     62  N   PRO A   2      12.480  28.385   7.783  0.00  0.00    -0.272 N 
ATOM     63  CD  PRO A   2      13.839  28.936   7.808  0.00  0.00    +0.094 C 
ATOM     64  CG  PRO A   2      14.705  27.743   7.459  0.00  0.00    +0.024 C 
ATOM     65  CB  PRO A   2      13.828  26.840   6.653  0.00  0.00    +0.031 C 
ATOM     66  CA  PRO A   2      12.444  26.999   7.293  0.00  0.00    +0.152 C 
BRANCH  60  67
ATOM     67  CA  THR A   1      11.411  30.414   8.652  0.00  0.00    +0.172 C 
BRANCH  67  68
ATOM     68  N   THR A   1      10.243  31.171   8.168  0.00  0.00    -0.236 NA
ATOM     69  H   THR A   1       9.304  30.902   8.525  0.00  0.00    +0.142 HD
ENDBRANCH  67  68
BRANCH  67  70
ATOM     70  CB  THR A   1      11.468  30.418  10.189  0.00  0.00    +0.135 C 
ATOM     71  CG2 THR A   1      10.173  29.841  10.762  0.00  0.00    +0.034 C 
BRANCH  70  72
ATOM     72  OG1 THR A   1      12.522  29.571  10.642  0.00  0.00    -0.383 OA
ATOM     73  HG1 THR A   1      12.361  28.647  10.325  0.00  0.00    +0.210 HD
ENDBRANCH  70  72
ENDBRANCH  67  70
ENDBRANCH  60  67
ENDBRANCH  56  66
ENDBRANCH  55  57
BRANCH  55  74
ATOM     74  CB  VAL A   3      13.711  25.169  11.364  0.00  0.00    +0.027 C 
ATOM     75  CG2 VAL A   3      13.626  24.082  12.455  0.00  0.00    +0.002 C 
ATOM     76  CG1 VAL A   3      14.656  24.703  10.270  0.00  0.00    +0.002 C 
ENDBRANCH  55  74
ENDBRANCH  51  55
ENDBRANCH  50  52
BRANCH  50  77
ATOM     77  CB  ASN A   4       8.930  25.364  14.322  0.00  0.00    +0.114 C 
BRANCH  77  78
ATOM     78  CG  ASN A   4       7.775  25.372  13.335  0.00  0.00    +0.222 C 
ATOM     79  ND2 ASN A   4       7.293  24.200  12.990  0.00  0.00    -0.329 N 
ATOM     80 HD21 ASN A   4       7.664  23.335  13.432  0.00  0.00    +0.145 HD
ATOM     81 HD22 ASN A   4       6.540  24.137  12.275  0.00  0.00    +0.145 HD
ATOM     82  OD1 ASN A   4       7.366  26.415  12.839  0.00  0.00    -0.275 OA
ENDBRANCH  77  78
ENDBRANCH  50  77
ENDBRANCH  46  50
ENDBRANCH  45  47
BRANCH  45  83
ATOM     83  CB  ILE A   5      13.381  28.647  16.021  0.00  0.00    +0.027 C 
ATOM     84  CG2 ILE A   5      14.481  28.909  17.020  0.00  0.00    +0.002 C 
BRANCH  83  85
ATOM     85  CG1 ILE A   5      13.890  28.338  14.607  0.00  0.00    +0.002 C 
ATOM     86  CD1 ILE A   5      15.057  27.385  14.580  0.00  0.00    +0.000 C 
ENDBRANCH  83  85
ENDBRANCH  45  83
ENDBRANCH   1  45
TORSDOF 32
REMARK  Name = ../refined-set-2016/1sdu/1sdu_pocket.pdb
REMARK  239 active torsions:
REMARK  status: ('A' for Active; 'I' for Inactive)
REMARK    1  A    between atoms: _1  and  _3
REMARK    2  A    between atoms: _3  and  _4
REMARK    3  A    between atoms: _3  and  _6
REMARK    4  A    between atoms: _6  and  _7
REMARK    5  A    between atoms: _7  and  _8
REMARK    6  A    between atoms: _8  and  _9
REMARK    7  A    between atoms: _18  and  _20
REMARK    8  A    between atoms: _20  and  _21
REMARK    9  A    between atoms: _20  and  _23
REMARK   10  A    between atoms: _23  and  _24
REMARK   11  A    between atoms: _27  and  _29
REMARK   12  A    between atoms: _29  and  _30
REMARK   13  A    between atoms: _29  and  _32
REMARK   14  A    between atoms: _32  and  _33
REMARK   15  A    between atoms: _36  and  _38
REMARK   16  A    between atoms: _38  and  _39
REMARK   17  A    between atoms: _38  and  _41
REMARK   18  A    between atoms: _41  and  _42
REMARK   19  A    between atoms: _45  and  _47
REMARK   20  A    between atoms: _47  and  _48
REMARK   21  A    between atoms: _47  and  _50
REMARK   22  A    between atoms: _50  and  _51
REMARK   23  A    between atoms: _54  and  _56
REMARK   24  A    between atoms: _56  and  _57
REMARK   25  A    between atoms: _56  and  _59
REMARK   26  A    between atoms: _59  and  _60
REMARK   27  A    between atoms: _63  and  _65
REMARK   28  A    between atoms: _65  and  _66
REMARK   29  A    between atoms: _68  and  _70
REMARK   30  A    between atoms: _70  and  _71
REMARK   31  A    between atoms: _74  and  _76
REMARK   32  A    between atoms: _76  and  _77
REMARK   33  A    between atoms: _76  and  _79
REMARK   34  A    between atoms: _79  and  _80
REMARK   35  A    between atoms: _83  and  _85
REMARK   36  A    between atoms: _85  and  _86
REMARK   37  A    between atoms: _85  and  _88
REMARK   38  A    between atoms: _88  and  _89
REMARK   39  A    between atoms: _92  and  _94
REMARK   40  A    between atoms: _94  and  _95
REMARK   41  A    between atoms: _94  and  _97
REMARK   42  A    between atoms: _97  and  _98
REMARK   43  A    between atoms: _101  and  _103
REMARK   44  A    between atoms: _103  and  _104
REMARK   45  A    between atoms: _103  and  _106
REMARK   46  A    between atoms: _109  and  _111
REMARK   47  A    between atoms: _111  and  _112
REMARK   48  A    between atoms: _111  and  _114
REMARK   49  A    between atoms: _115  and  _116
REMARK   50  A    between atoms: _116  and  _117
REMARK   51  A    between atoms: _117  and  _118
REMARK   52  A    between atoms: _122  and  _124
REMARK   53  A    between atoms: _124  and  _125
REMARK   54  A    between atoms: _124  and  _127
REMARK   55  A    between atoms: _127  and  _128
REMARK   56  A    between atoms: _128  and  _129
REMARK   57  A    between atoms: _131  and  _133
REMARK   58  A    between atoms: _133  and  _134
REMARK   59  A    between atoms: _133  and  _136
REMARK   60  A    between atoms: _136  and  _137
REMARK   61  A    between atoms: _140  and  _142
REMARK   62  A    between atoms: _142  and  _143
REMARK   63  A    between atoms: _145  and  _147
REMARK   64  A    between atoms: _147  and  _148
REMARK   65  A    between atoms: _150  and  _152
REMARK   66  A    between atoms: _152  and  _153
REMARK   67  A    between atoms: _152  and  _155
REMARK   68  A    between atoms: _155  and  _156
REMARK   69  A    between atoms: _159  and  _161
REMARK   70  A    between atoms: _161  and  _162
REMARK   71  A    between atoms: _164  and  _166
REMARK   72  A    between atoms: _166  and  _167
REMARK   73  A    between atoms: _169  and  _171
REMARK   74  A    between atoms: _171  and  _172
REMARK   75  A    between atoms: _171  and  _174
REMARK   76  A    between atoms: _174  and  _175
REMARK   77  A    between atoms: _181  and  _183
REMARK   78  A    between atoms: _183  and  _184
REMARK   79  A    between atoms: _183  and  _186
REMARK   80  A    between atoms: _186  and  _187
REMARK   81  A    between atoms: _190  and  _192
REMARK   82  A    between atoms: _192  and  _193
REMARK   83  A    between atoms: _192  and  _195
REMARK   84  A    between atoms: _198  and  _200
REMARK   85  A    between atoms: _200  and  _201
REMARK   86  A    between atoms: _200  and  _203
REMARK   87  A    between atoms: _203  and  _204
REMARK   88  A    between atoms: _207  and  _209
REMARK   89  A    between atoms: _209  and  _210
REMARK   90  A    between atoms: _209  and  _212
REMARK   91  A    between atoms: _212  and  _213
REMARK   92  A    between atoms: _217  and  _218
REMARK   93  A    between atoms: _223  and  _225
REMARK   94  A    between atoms: _225  and  _226
REMARK   95  A    between atoms: _225  and  _228
REMARK   96  A    between atoms: _231  and  _233
REMARK   97  A    between atoms: _233  and  _234
REMARK   98  A    between atoms: _233  and  _236
REMARK   99  A    between atoms: _236  and  _237
REMARK  100  A    between atoms: _242  and  _244
REMARK  101  A    between atoms: _244  and  _245
REMARK  102  A    between atoms: _244  and  _247
REMARK  103  A    between atoms: _247  and  _248
REMARK  104  A    between atoms: _251  and  _253
REMARK  105  A    between atoms: _253  and  _254
REMARK  106  A    between atoms: _253  and  _256
REMARK  107  A    between atoms: _256  and  _257
REMARK  108  A    between atoms: _260  and  _262
REMARK  109  A    between atoms: _262  and  _263
REMARK  110  A    between atoms: _265  and  _267
REMARK  111  A    between atoms: _267  and  _268
REMARK  112  A    between atoms: _267  and  _270
REMARK  113  A    between atoms: _270  and  _271
REMARK  114  A    between atoms: _271  and  _272
REMARK  115  A    between atoms: _272  and  _273
REMARK  116  A    between atoms: _282  and  _284
REMARK  117  A    between atoms: _284  and  _285
REMARK  118  A    between atoms: _284  and  _287
REMARK  119  A    between atoms: _287  and  _288
REMARK  120  A    between atoms: _293  and  _295
REMARK  121  A    between atoms: _295  and  _296
REMARK  122  A    between atoms: _295  and  _298
REMARK  123  A    between atoms: _298  and  _299
REMARK  124  A    between atoms: _299  and  _300
REMARK  125  A    between atoms: _300  and  _301
REMARK  126  A    between atoms: _310  and  _312
REMARK  127  A    between atoms: _312  and  _313
REMARK  128  A    between atoms: _312  and  _315
REMARK  129  A    between atoms: _315  and  _316
REMARK  130  A    between atoms: _319  and  _321
REMARK  131  A    between atoms: _321  and  _322
REMARK  132  A    between atoms: _321  and  _324
REMARK  133  A    between atoms: _324  and  _325
REMARK  134  A    between atoms: _328  and  _330
REMARK  135  A    between atoms: _330  and  _331
REMARK  136  A    between atoms: _330  and  _333
REMARK  137  A    between atoms: _333  and  _334
REMARK  138  A    between atoms: _337  and  _339
REMARK  139  A    between atoms: _339  and  _340
REMARK  140  A    between atoms: _339  and  _342
REMARK  141  A    between atoms: _342  and  _343
REMARK  142  A    between atoms: _346  and  _348
REMARK  143  A    between atoms: _348  and  _349
REMARK  144  A    between atoms: _351  and  _353
REMARK  145  A    between atoms: _353  and  _354
REMARK  146  A    between atoms: _357  and  _359
REMARK  147  A    between atoms: _359  and  _360
REMARK  148  A    between atoms: _359  and  _362
REMARK  149  A    between atoms: _362  and  _363
REMARK  150  A    between atoms: _366  and  _368
REMARK  151  A    between atoms: _368  and  _369
REMARK  152  A    between atoms: _368  and  _371
REMARK  153  A    between atoms: _371  and  _372
REMARK  154  A    between atoms: _375  and  _377
REMARK  155  A    between atoms: _377  and  _378
REMARK  156  A    between atoms: _377  and  _380
REMARK  157  A    between atoms: _380  and  _381
REMARK  158  A    between atoms: _384  and  _386
REMARK  159  A    between atoms: _386  and  _387
REMARK  160  A    between atoms: _386  and  _389
REMARK  161  A    between atoms: _392  and  _394
REMARK  162  A    between atoms: _394  and  _395
REMARK  163  A    between atoms: _394  and  _397
REMARK  164  A    between atoms: _397  and  _398
REMARK  165  A    between atoms: _401  and  _403
REMARK  166  A    between atoms: _403  and  _404
REMARK  167  A    between atoms: _403  and  _406
REMARK  168  A    between atoms: _406  and  _407
REMARK  169  A    between atoms: _407  and  _408
REMARK  170  A    between atoms: _408  and  _409
REMARK  171  A    between atoms: _409  and  _410
REMARK  172  A    between atoms: _414  and  _416
REMARK  173  A    between atoms: _416  and  _417
REMARK  174  A    between atoms: _416  and  _419
REMARK  175  A    between atoms: _419  and  _420
REMARK  176  A    between atoms: _420  and  _421
REMARK  177  A    between atoms: _423  and  _425
REMARK  178  A    between atoms: _425  and  _426
REMARK  179  A    between atoms: _425  and  _428
REMARK  180  A    between atoms: _428  and  _429
REMARK  181  A    between atoms: _432  and  _434
REMARK  182  A    between atoms: _434  and  _435
REMARK  183  A    between atoms: _437  and  _439
REMARK  184  A    between atoms: _439  and  _440
REMARK  185  A    between atoms: _442  and  _444
REMARK  186  A    between atoms: _444  and  _445
REMARK  187  A    between atoms: _444  and  _447
REMARK  188  A    between atoms: _447  and  _448
REMARK  189  A    between atoms: _451  and  _453
REMARK  190  A    between atoms: _453  and  _454
REMARK  191  A    between atoms: _456  and  _458
REMARK  192  A    between atoms: _458  and  _459
REMARK  193  A    between atoms: _461  and  _463
REMARK  194  A    between atoms: _463  and  _464
REMARK  195  A    between atoms: _463  and  _466
REMARK  196  A    between atoms: _466  and  _467
REMARK  197  A    between atoms: _473  and  _475
REMARK  198  A    between atoms: _475  and  _476
REMARK  199  A    between atoms: _475  and  _478
REMARK  200  A    between atoms: _478  and  _479
REMARK  201  A    between atoms: _482  and  _484
REMARK  202  A    between atoms: _484  and  _485
REMARK  203  A    between atoms: _484  and  _487
REMARK  204  A    between atoms: _490  and  _492
REMARK  205  A    between atoms: _492  and  _493
REMARK  206  A    between atoms: _492  and  _495
REMARK  207  A    between atoms: _495  and  _496
REMARK  208  A    between atoms: _499  and  _501
REMARK  209  A    between atoms: _501  and  _502
REMARK  210  A    between atoms: _501  and  _504
REMARK  211  A    between atoms: _504  and  _505
REMARK  212  A    between atoms: _509  and  _510
REMARK  213  A    between atoms: _515  and  _517
REMARK  214  A    between atoms: _517  and  _518
REMARK  215  A    between atoms: _517  and  _520
REMARK  216  A    between atoms: _523  and  _525
REMARK  217  A    between atoms: _525  and  _526
REMARK  218  A    between atoms: _525  and  _528
REMARK  219  A    between atoms: _528  and  _529
REMARK  220  A    between atoms: _534  and  _536
REMARK  221  A    between atoms: _536  and  _537
REMARK  222  A    between atoms: _536  and  _539
REMARK  223  A    between atoms: _539  and  _540
REMARK  224  A    between atoms: _543  and  _545
REMARK  225  A    between atoms: _545  and  _546
REMARK  226  A    between atoms: _545  and  _548
REMARK  227  A    between atoms: _548  and  _549
REMARK  228  A    between atoms: _552  and  _554
REMARK  229  A    between atoms: _554  and  _555
REMARK  230  A    between atoms: _557  and  _559
REMARK  231  A    between atoms: _559  and  _560
REMARK  232  A    between atoms: _559  and  _562
REMARK  233  A    between atoms: _562  and  _563
REMARK  234  A    between atoms: _563  and  _564
REMARK  235  A    between atoms: _564  and  _565
REMARK  236  A    between atoms: _574  and  _576
REMARK  237  A    between atoms: _576  and  _577
REMARK  238  A    between atoms: _576  and  _579
REMARK  239  A    between atoms: _579  and  _580
REMARK                            x       y       z     vdW  Elec       q    Type
REMARK                         _______ _______ _______ _____ _____    ______ ____
ROOT
ATOM      1  NE  ARG A   1      22.127  36.813  22.492  0.00  0.00    -0.265 N 
ATOM      2  HE  ARG A   1      21.117  36.633  22.661  0.00  0.00    +0.259 HD
ATOM      3  CZ  ARG A   1      22.442  37.618  21.486  0.00  0.00    +0.342 C 
ATOM      4  NH2 ARG A   1      23.726  37.848  21.285  0.00  0.00    -0.292 N 
ATOM      5 HH21 ARG A   1      24.436  37.405  21.902  0.00  0.00    +0.255 HD
ATOM      6 HH22 ARG A   1      24.027  38.472  20.509  0.00  0.00    +0.255 HD
ATOM      7  NH1 ARG A   1      21.483  38.155  20.752  0.00  0.00    -0.292 N 
ATOM      8 HH11 ARG A   1      20.487  37.946  20.964  0.00  0.00    +0.255 HD
ATOM      9 HH12 ARG A   1      21.725  38.787  19.962  0.00  0.00    +0.255 HD
ENDROOT
BRANCH   1  10
ATOM     10  CD  ARG A   1      23.078  36.161  23.379  0.00  0.00    +0.174 C 
BRANCH  10  11
ATOM     11  CG  ARG A   1      22.325  35.498  24.536  0.00  0.00    +0.045 C 
BRANCH  11  12
ATOM     12  CB  ARG A   1      23.239  34.781  25.479  0.00  0.00    +0.029 C 
BRANCH  12  13
ATOM     13  CA  ARG A   1      22.598  33.829  26.481  0.00  0.00    +0.133 C 
BRANCH  13  14
ATOM     14  N   ARG A   1      21.948  34.606  27.520  0.00  0.00    -0.239 NA
ATOM     15  H   ARG A   1      21.954  35.645  27.479  0.00  0.00    +0.142 HD
ENDBRANCH  13  14
BRANCH  13  16
ATOM     16  C   ARG A   1      23.654  32.916  27.095  0.00  0.00    +0.224 C 
ATOM     17  O   ARG A   1      24.421  33.381  27.966  0.00  0.00    -0.287 OA
ENDBRANCH  13  16
ENDBRANCH  12  13
ENDBRANCH  11  12
ENDBRANCH  10  11
ENDBRANCH   1  10
TORSDOF 6
REMARK  Name = ../refined-set-2016/1sdu/1sdu_pocket.pdb
REMARK  239 active torsions:
REMARK  status: ('A' for Active; 'I' for Inactive)
REMARK    1  A    between atoms: _1  and  _3
REMARK    2  A    between atoms: _3  and  _4
REMARK    3  A    between atoms: _3  and  _6
REMARK    4  A    between atoms: _6  and  _7
REMARK    5  A    between atoms: _7  and  _8
REMARK    6  A    between atoms: _8  and  _9
REMARK    7  A    between atoms: _18  and  _20
REMARK    8  A    between atoms: _20  and  _21
REMARK    9  A    between atoms: _20  and  _23
REMARK   10  A    between atoms: _23  and  _24
REMARK   11  A    between atoms: _27  and  _29
REMARK   12  A    between atoms: _29  and  _30
REMARK   13  A    between atoms: _29  and  _32
REMARK   14  A    between atoms: _32  and  _33
REMARK   15  A    between atoms: _36  and  _38
REMARK   16  A    between atoms: _38  and  _39
REMARK   17  A    between atoms: _38  and  _41
REMARK   18  A    between atoms: _41  and  _42
REMARK   19  A    between atoms: _45  and  _47
REMARK   20  A    between atoms: _47  and  _48
REMARK   21  A    between atoms: _47  and  _50
REMARK   22  A    between atoms: _50  and  _51
REMARK   23  A    between atoms: _54  and  _56
REMARK   24  A    between atoms: _56  and  _57
REMARK   25  A    between atoms: _56  and  _59
REMARK   26  A    between atoms: _59  and  _60
REMARK   27  A    between atoms: _63  and  _65
REMARK   28  A    between atoms: _65  and  _66
REMARK   29  A    between atoms: _68  and  _70
REMARK   30  A    between atoms: _70  and  _71
REMARK   31  A    between atoms: _74  and  _76
REMARK   32  A    between atoms: _76  and  _77
REMARK   33  A    between atoms: _76  and  _79
REMARK   34  A    between atoms: _79  and  _80
REMARK   35  A    between atoms: _83  and  _85
REMARK   36  A    between atoms: _85  and  _86
REMARK   37  A    between atoms: _85  and  _88
REMARK   38  A    between atoms: _88  and  _89
REMARK   39  A    between atoms: _92  and  _94
REMARK   40  A    between atoms: _94  and  _95
REMARK   41  A    between atoms: _94  and  _97
REMARK   42  A    between atoms: _97  and  _98
REMARK   43  A    between atoms: _101  and  _103
REMARK   44  A    between atoms: _103  and  _104
REMARK   45  A    between atoms: _103  and  _106
REMARK   46  A    between atoms: _109  and  _111
REMARK   47  A    between atoms: _111  and  _112
REMARK   48  A    between atoms: _111  and  _114
REMARK   49  A    between atoms: _115  and  _116
REMARK   50  A    between atoms: _116  and  _117
REMARK   51  A    between atoms: _117  and  _118
REMARK   52  A    between atoms: _122  and  _124
REMARK   53  A    between atoms: _124  and  _125
REMARK   54  A    between atoms: _124  and  _127
REMARK   55  A    between atoms: _127  and  _128
REMARK   56  A    between atoms: _128  and  _129
REMARK   57  A    between atoms: _131  and  _133
REMARK   58  A    between atoms: _133  and  _134
REMARK   59  A    between atoms: _133  and  _136
REMARK   60  A    between atoms: _136  and  _137
REMARK   61  A    between atoms: _140  and  _142
REMARK   62  A    between atoms: _142  and  _143
REMARK   63  A    between atoms: _145  and  _147
REMARK   64  A    between atoms: _147  and  _148
REMARK   65  A    between atoms: _150  and  _152
REMARK   66  A    between atoms: _152  and  _153
REMARK   67  A    between atoms: _152  and  _155
REMARK   68  A    between atoms: _155  and  _156
REMARK   69  A    between atoms: _159  and  _161
REMARK   70  A    between atoms: _161  and  _162
REMARK   71  A    between atoms: _164  and  _166
REMARK   72  A    between atoms: _166  and  _167
REMARK   73  A    between atoms: _169  and  _171
REMARK   74  A    between atoms: _171  and  _172
REMARK   75  A    between atoms: _171  and  _174
REMARK   76  A    between atoms: _174  and  _175
REMARK   77  A    between atoms: _181  and  _183
REMARK   78  A    between atoms: _183  and  _184
REMARK   79  A    between atoms: _183  and  _186
REMARK   80  A    between atoms: _186  and  _187
REMARK   81  A    between atoms: _190  and  _192
REMARK   82  A    between atoms: _192  and  _193
REMARK   83  A    between atoms: _192  and  _195
REMARK   84  A    between atoms: _198  and  _200
REMARK   85  A    between atoms: _200  and  _201
REMARK   86  A    between atoms: _200  and  _203
REMARK   87  A    between atoms: _203  and  _204
REMARK   88  A    between atoms: _207  and  _209
REMARK   89  A    between atoms: _209  and  _210
REMARK   90  A    between atoms: _209  and  _212
REMARK   91  A    between atoms: _212  and  _213
REMARK   92  A    between atoms: _217  and  _218
REMARK   93  A    between atoms: _223  and  _225
REMARK   94  A    between atoms: _225  and  _226
REMARK   95  A    between atoms: _225  and  _228
REMARK   96  A    between atoms: _231  and  _233
REMARK   97  A    between atoms: _233  and  _234
REMARK   98  A    between atoms: _233  and  _236
REMARK   99  A    between atoms: _236  and  _237
REMARK  100  A    between atoms: _242  and  _244
REMARK  101  A    between atoms: _244  and  _245
REMARK  102  A    between atoms: _244  and  _247
REMARK  103  A    between atoms: _247  and  _248
REMARK  104  A    between atoms: _251  and  _253
REMARK  105  A    between atoms: _253  and  _254
REMARK  106  A    between atoms: _253  and  _256
REMARK  107  A    between atoms: _256  and  _257
REMARK  108  A    between atoms: _260  and  _262
REMARK  109  A    between atoms: _262  and  _263
REMARK  110  A    between atoms: _265  and  _267
REMARK  111  A    between atoms: _267  and  _268
REMARK  112  A    between atoms: _267  and  _270
REMARK  113  A    between atoms: _270  and  _271
REMARK  114  A    between atoms: _271  and  _272
REMARK  115  A    between atoms: _272  and  _273
REMARK  116  A    between atoms: _282  and  _284
REMARK  117  A    between atoms: _284  and  _285
REMARK  118  A    between atoms: _284  and  _287
REMARK  119  A    between atoms: _287  and  _288
REMARK  120  A    between atoms: _293  and  _295
REMARK  121  A    between atoms: _295  and  _296
REMARK  122  A    between atoms: _295  and  _298
REMARK  123  A    between atoms: _298  and  _299
REMARK  124  A    between atoms: _299  and  _300
REMARK  125  A    between atoms: _300  and  _301
REMARK  126  A    between atoms: _310  and  _312
REMARK  127  A    between atoms: _312  and  _313
REMARK  128  A    between atoms: _312  and  _315
REMARK  129  A    between atoms: _315  and  _316
REMARK  130  A    between atoms: _319  and  _321
REMARK  131  A    between atoms: _321  and  _322
REMARK  132  A    between atoms: _321  and  _324
REMARK  133  A    between atoms: _324  and  _325
REMARK  134  A    between atoms: _328  and  _330
REMARK  135  A    between atoms: _330  and  _331
REMARK  136  A    between atoms: _330  and  _333
REMARK  137  A    between atoms: _333  and  _334
REMARK  138  A    between atoms: _337  and  _339
REMARK  139  A    between atoms: _339  and  _340
REMARK  140  A    between atoms: _339  and  _342
REMARK  141  A    between atoms: _342  and  _343
REMARK  142  A    between atoms: _346  and  _348
REMARK  143  A    between atoms: _348  and  _349
REMARK  144  A    between atoms: _351  and  _353
REMARK  145  A    between atoms: _353  and  _354
REMARK  146  A    between atoms: _357  and  _359
REMARK  147  A    between atoms: _359  and  _360
REMARK  148  A    between atoms: _359  and  _362
REMARK  149  A    between atoms: _362  and  _363
REMARK  150  A    between atoms: _366  and  _368
REMARK  151  A    between atoms: _368  and  _369
REMARK  152  A    between atoms: _368  and  _371
REMARK  153  A    between atoms: _371  and  _372
REMARK  154  A    between atoms: _375  and  _377
REMARK  155  A    between atoms: _377  and  _378
REMARK  156  A    between atoms: _377  and  _380
REMARK  157  A    between atoms: _380  and  _381
REMARK  158  A    between atoms: _384  and  _386
REMARK  159  A    between atoms: _386  and  _387
REMARK  160  A    between atoms: _386  and  _389
REMARK  161  A    between atoms: _392  and  _394
REMARK  162  A    between atoms: _394  and  _395
REMARK  163  A    between atoms: _394  and  _397
REMARK  164  A    between atoms: _397  and  _398
REMARK  165  A    between atoms: _401  and  _403
REMARK  166  A    between atoms: _403  and  _404
REMARK  167  A    between atoms: _403  and  _406
REMARK  168  A    between atoms: _406  and  _407
REMARK  169  A    between atoms: _407  and  _408
REMARK  170  A    between atoms: _408  and  _409
REMARK  171  A    between atoms: _409  and  _410
REMARK  172  A    between atoms: _414  and  _416
REMARK  173  A    between atoms: _416  and  _417
REMARK  174  A    between atoms: _416  and  _419
REMARK  175  A    between atoms: _419  and  _420
REMARK  176  A    between atoms: _420  and  _421
REMARK  177  A    between atoms: _423  and  _425
REMARK  178  A    between atoms: _425  and  _426
REMARK  179  A    between atoms: _425  and  _428
REMARK  180  A    between atoms: _428  and  _429
REMARK  181  A    between atoms: _432  and  _434
REMARK  182  A    between atoms: _434  and  _435
REMARK  183  A    between atoms: _437  and  _439
REMARK  184  A    between atoms: _439  and  _440
REMARK  185  A    between atoms: _442  and  _444
REMARK  186  A    between atoms: _444  and  _445
REMARK  187  A    between atoms: _444  and  _447
REMARK  188  A    between atoms: _447  and  _448
REMARK  189  A    between atoms: _451  and  _453
REMARK  190  A    between atoms: _453  and  _454
REMARK  191  A    between atoms: _456  and  _458
REMARK  192  A    between atoms: _458  and  _459
REMARK  193  A    between atoms: _461  and  _463
REMARK  194  A    between atoms: _463  and  _464
REMARK  195  A    between atoms: _463  and  _466
REMARK  196  A    between atoms: _466  and  _467
REMARK  197  A    between atoms: _473  and  _475
REMARK  198  A    between atoms: _475  and  _476
REMARK  199  A    between atoms: _475  and  _478
REMARK  200  A    between atoms: _478  and  _479
REMARK  201  A    between atoms: _482  and  _484
REMARK  202  A    between atoms: _484  and  _485
REMARK  203  A    between atoms: _484  and  _487
REMARK  204  A    between atoms: _490  and  _492
REMARK  205  A    between atoms: _492  and  _493
REMARK  206  A    between atoms: _492  and  _495
REMARK  207  A    between atoms: _495  and  _496
REMARK  208  A    between atoms: _499  and  _501
REMARK  209  A    between atoms: _501  and  _502
REMARK  210  A    between atoms: _501  and  _504
REMARK  211  A    between atoms: _504  and  _505
REMARK  212  A    between atoms: _509  and  _510
REMARK  213  A    between atoms: _515  and  _517
REMARK  214  A    between atoms: _517  and  _518
REMARK  215  A    between atoms: _517  and  _520
REMARK  216  A    between atoms: _523  and  _525
REMARK  217  A    between atoms: _525  and  _526
REMARK  218  A    between atoms: _525  and  _528
REMARK  219  A    between atoms: _528  and  _529
REMARK  220  A    between atoms: _534  and  _536
REMARK  221  A    between atoms: _536  and  _537
REMARK  222  A    between atoms: _536  and  _539
REMARK  223  A    between atoms: _539  and  _540
REMARK  224  A    between atoms: _543  and  _545
REMARK  225  A    between atoms: _545  and  _546
REMARK  226  A    between atoms: _545  and  _548
REMARK  227  A    between atoms: _548  and  _549
REMARK  228  A    between atoms: _552  and  _554
REMARK  229  A    between atoms: _554  and  _555
REMARK  230  A    between atoms: _557  and  _559
REMARK  231  A    between atoms: _559  and  _560
REMARK  232  A    between atoms: _559  and  _562
REMARK  233  A    between atoms: _562  and  _563
REMARK  234  A    between atoms: _563  and  _564
REMARK  235  A    between atoms: _564  and  _565
REMARK  236  A    between atoms: _574  and  _576
REMARK  237  A    between atoms: _576  and  _577
REMARK  238  A    between atoms: _576  and  _579
REMARK  239  A    between atoms: _579  and  _580
REMARK                            x       y       z     vdW  Elec       q    Type
REMARK                         _______ _______ _______ _____ _____    ______ ____
ROOT
ATOM      1  C   ALA A   6      23.953  24.066  14.705  0.00  0.00    +0.241 C 
ATOM      2  O   ALA A   6      24.466  23.384  15.610  0.00  0.00    -0.273 OA
ATOM      3  N   ASP A   7      23.913  23.625  13.440  0.00  0.00    -0.297 N 
ATOM      4  H   ASP A   7      23.467  24.194  12.692  0.00  0.00    +0.150 HD
ENDROOT
BRANCH   1   5
ATOM      5  CA  ALA A   6      23.371  25.430  14.975  0.00  0.00    +0.149 C 
ATOM      6  CB  ALA A   6      24.496  26.350  15.446  0.00  0.00    +0.031 C 
BRANCH   5   8
ATOM      7  C   GLY A   5      21.040  25.269  15.715  0.00  0.00    +0.243 C 
ATOM      8  N   ALA A   6      22.335  25.343  15.975  0.00  0.00    -0.297 N 
ATOM      9  H   ALA A   6      22.627  25.338  16.973  0.00  0.00    +0.150 HD
ATOM     10  O   GLY A   5      20.620  25.273  14.557  0.00  0.00    -0.273 OA
BRANCH   7  11
ATOM     11  CA  GLY A   5      20.093  25.154  16.882  0.00  0.00    +0.176 C 
BRANCH  11  13
ATOM     12  C   THR A   4      21.083  23.865  18.663  0.00  0.00    +0.243 C 
ATOM     13  N   GLY A   5      20.692  25.035  18.200  0.00  0.00    -0.295 N 
ATOM     14  H   GLY A   5      20.814  25.885  18.786  0.00  0.00    +0.150 HD
ATOM     15  O   THR A   4      20.912  22.790  18.083  0.00  0.00    -0.273 OA
BRANCH  12  16
ATOM     16  CA  THR A   4      21.842  23.821  19.974  0.00  0.00    +0.176 C 
BRANCH  16  18
ATOM     17  C   ASP A   3      23.352  25.692  19.714  0.00  0.00    +0.241 C 
ATOM     18  N   THR A   4      22.347  25.115  20.394  0.00  0.00    -0.295 N 
ATOM     19  H   THR A   4      21.932  25.594  21.219  0.00  0.00    +0.150 HD
ATOM     20  O   ASP A   3      23.819  25.164  18.708  0.00  0.00    -0.273 OA
BRANCH  17  21
ATOM     21  CA  ASP A   3      23.859  27.022  20.228  0.00  0.00    +0.160 C 
BRANCH  21  24
ATOM     22  C   LEU A   2      25.040  27.382  22.325  0.00  0.00    +0.241 C 
ATOM     23  O   LEU A   2      24.044  27.824  22.912  0.00  0.00    -0.273 OA
ATOM     24  N   ASP A   3      25.017  26.852  21.125  0.00  0.00    -0.297 N 
ATOM     25  H   ASP A   3      25.835  26.299  20.799  0.00  0.00    +0.150 HD
BRANCH  22  26
ATOM     26  CA  LEU A   2      26.405  27.455  22.980  0.00  0.00    +0.149 C 
BRANCH  26  28
ATOM     27  C   LEU A   1      27.245  29.567  22.074  0.00  0.00    +0.238 C 
ATOM     28  N   LEU A   2      26.806  28.862  23.102  0.00  0.00    -0.297 N 
ATOM     29  H   LEU A   2      26.742  29.321  24.033  0.00  0.00    +0.150 HD
ATOM     30  O   LEU A   1      27.443  29.054  20.963  0.00  0.00    -0.274 OA
BRANCH  27  31
ATOM     31  CA  LEU A   1      27.461  31.063  22.273  0.00  0.00    +0.145 C 
BRANCH  31  32
ATOM     32  N   LEU A   1      28.821  31.461  21.935  0.00  0.00    -0.238 NA
ATOM     33  H   LEU A   1      29.022  31.663  20.935  0.00  0.00    +0.142 HD
ENDBRANCH  31  32
BRANCH  31  34
ATOM     34  CB  LEU A   1      26.517  31.861  21.375  0.00  0.00    +0.026 C 
BRANCH  34  35
ATOM     35  CG  LEU A   1      25.031  31.618  21.521  0.00  0.00    +0.002 C 
ATOM     36  CD2 LEU A   1      24.527  32.081  22.852  0.00  0.00    +0.000 C 
ATOM     37  CD1 LEU A   1      24.307  32.302  20.355  0.00  0.00    +0.000 C 
ENDBRANCH  34  35
ENDBRANCH  31  34
ENDBRANCH  27  31
ENDBRANCH  26  28
BRANCH  26  38
ATOM     38  CB  LEU A   2      26.392  26.797  24.358  0.00  0.00    +0.029 C 
BRANCH  38  39
ATOM     39  CG  LEU A   2      27.730  26.736  25.096  0.00  0.00    +0.002 C 
ATOM     40  CD2 LEU A   2      27.524  26.173  26.508  0.00  0.00    +0.000 C 
ATOM     41  CD1 LEU A   2      28.781  25.963  24.329  0.00  0.00    +0.000 C 
ENDBRANCH  38  39
ENDBRANCH  26  38
ENDBRANCH  22  26
ENDBRANCH  21  24
BRANCH  21  42
ATOM     42  CB  ASP A   3      24.313  27.914  19.070  0.00  0.00    +0.143 C 
BRANCH  42  43
ATOM     43  CG  ASP A   3      23.194  28.380  18.185  0.00  0.00    +0.367 C 
ATOM     44  OD2 ASP A   3      22.119  27.784  18.313  0.00  0.00    -0.246 OA
ATOM     45  OD1 ASP A   3      23.469  29.335  17.416  0.00  0.00    -0.246 OA
ENDBRANCH  42  43
ENDBRANCH  21  42
ENDBRANCH  17  21
ENDBRANCH  16  18
BRANCH  16  46
ATOM     46  CB  THR A   4      20.954  23.197  21.062  0.00  0.00    +0.137 C 
ATOM     47  CG2 THR A   4      21.665  22.933  22.365  0.00  0.00    +0.034 C 
BRANCH  46  48
ATOM     48  OG1 THR A   4      19.840  24.106  21.322  0.00  0.00    -0.382 OA
ATOM     49  HG1 THR A   4      19.319  24.234  20.490  0.00  0.00    +0.210 HD
ENDBRANCH  46  48
ENDBRANCH  16  46
ENDBRANCH  12  16
ENDBRANCH  11  13
ENDBRANCH   7  11
ENDBRANCH   5   8
ENDBRANCH   1   5
BRANCH   3  50
ATOM     50  CA  ASP A   7      24.515  22.316  13.134  0.00  0.00    +0.160 C 
BRANCH  50  51
ATOM     51  C   ASP A   7      26.014  22.385  13.270  0.00  0.00    +0.241 C 
ATOM     52  O   ASP A   7      26.640  21.389  13.659  0.00  0.00    -0.273 OA
ATOM     53  N   ASP A   8      26.605  23.512  12.936  0.00  0.00    -0.297 N 
ATOM     54  H   ASP A   8      25.993  24.332  12.753  0.00  0.00    +0.150 HD
BRANCH  53  55
ATOM     55  CA  ASP A   8      28.044  23.712  12.800  0.00  0.00    +0.160 C 
BRANCH  55  56
ATOM     56  C   ASP A   8      28.502  24.810  13.734  0.00  0.00    +0.241 C 
ATOM     57  O   ASP A   8      27.697  25.533  14.292  0.00  0.00    -0.273 OA
ATOM     58  N   THR A   9      29.816  24.958  13.861  0.00  0.00    -0.295 N 
ATOM     59  H   THR A   9      30.418  24.294  13.333  0.00  0.00    +0.150 HD
BRANCH  58  60
ATOM     60  CA  THR A   9      30.494  25.962  14.669  0.00  0.00    +0.176 C 
BRANCH  60  61
ATOM     61  C   THR A   9      31.065  27.028  13.733  0.00  0.00    +0.243 C 
ATOM     62  N   VAL A  10      30.723  28.285  14.026  0.00  0.00    -0.297 N 
ATOM     63  H   VAL A  10      30.123  28.476  14.854  0.00  0.00    +0.150 HD
ATOM     64  O   THR A   9      31.727  26.687  12.734  0.00  0.00    -0.273 OA
BRANCH  62  65
ATOM     65  CA  VAL A  10      31.181  29.388  13.199  0.00  0.00    +0.149 C 
BRANCH  65  66
ATOM     66  C   VAL A  10      31.726  30.480  14.090  0.00  0.00    +0.241 C 
ATOM     67  O   VAL A  10      31.059  30.980  14.997  0.00  0.00    -0.273 OA
ATOM     68  N   ILE A  11      32.970  30.876  13.800  0.00  0.00    -0.298 N 
ATOM     69  H   ILE A  11      33.434  30.444  12.976  0.00  0.00    +0.150 HD
BRANCH  68  70
ATOM     70  CA  ILE A  11      33.717  31.861  14.549  0.00  0.00    +0.137 C 
BRANCH  70  71
ATOM     71  C   ILE A  11      33.936  33.108  13.683  0.00  0.00    +0.227 C 
ATOM     72  O   ILE A  11      34.104  32.995  12.458  0.00  0.00    -0.286 OA
ENDBRANCH  70  71
BRANCH  70  73
ATOM     73  CB  ILE A  11      35.083  31.270  14.987  0.00  0.00    +0.026 C 
ATOM     74  CG2 ILE A  11      35.901  32.278  15.749  0.00  0.00    +0.002 C 
BRANCH  73  75
ATOM     75  CG1 ILE A  11      34.897  29.962  15.771  0.00  0.00    +0.002 C 
ATOM     76  CD1 ILE A  11      34.069  30.155  17.005  0.00  0.00    +0.000 C 
ENDBRANCH  73  75
ENDBRANCH  70  73
ENDBRANCH  68  70
ENDBRANCH  65  66
BRANCH  65  77
ATOM     77  CB  VAL A  10      30.138  29.887  12.192  0.00  0.00    +0.027 C 
ATOM     78  CG2 VAL A  10      28.917  30.445  12.819  0.00  0.00    +0.002 C 
ATOM     79  CG1 VAL A  10      30.705  30.929  11.225  0.00  0.00    +0.002 C 
ENDBRANCH  65  77
ENDBRANCH  62  65
ENDBRANCH  60  61
BRANCH  60  80
ATOM     80  CB  THR A   9      31.604  25.287  15.470  0.00  0.00    +0.137 C 
ATOM     81  CG2 THR A   9      32.493  26.266  16.188  0.00  0.00    +0.034 C 
BRANCH  80  82
ATOM     82  OG1 THR A   9      30.973  24.389  16.416  0.00  0.00    -0.382 OA
ATOM     83  HG1 THR A   9      30.441  23.714  15.924  0.00  0.00    +0.210 HD
ENDBRANCH  80  82
ENDBRANCH  60  80
ENDBRANCH  58  60
ENDBRANCH  55  56
BRANCH  55  84
ATOM     84  CB  ASP A   8      28.432  24.047  11.369  0.00  0.00    +0.143 C 
BRANCH  84  85
ATOM     85  CG  ASP A   8      27.799  23.133  10.348  0.00  0.00    +0.367 C 
ATOM     86  OD2 ASP A   8      27.884  21.893  10.480  0.00  0.00    -0.246 OA
ATOM     87  OD1 ASP A   8      27.259  23.733   9.351  0.00  0.00    -0.246 OA
ENDBRANCH  84  85
ENDBRANCH  55  84
ENDBRANCH  53  55
ENDBRANCH  50  51
BRANCH  50  88
ATOM     88  CB  ASP A   7      24.129  21.895  11.696  0.00  0.00    +0.143 C 
BRANCH  88  89
ATOM     89  CG  ASP A   7      22.644  21.781  11.449  0.00  0.00    +0.367 C 
ATOM     90  OD2 ASP A   7      21.880  21.405  12.333  0.00  0.00    -0.246 OA
ATOM     91  OD1 ASP A   7      22.209  22.065  10.295  0.00  0.00    -0.246 OA
ENDBRANCH  88  89
ENDBRANCH  50  88
ENDBRANCH   3  50
TORSDOF 39
REMARK  Name = ../refined-set-2016/1sdu/1sdu_pocket.pdb
REMARK  239 active torsions:
REMARK  status: ('A' for Active; 'I' for Inactive)
REMARK    1  A    between atoms: _1  and  _3
REMARK    2  A    between atoms: _3  and  _4
REMARK    3  A    between atoms: _3  and  _6
REMARK    4  A    between atoms: _6  and  _7
REMARK    5  A    between atoms: _7  and  _8
REMARK    6  A    between atoms: _8  and  _9
REMARK    7  A    between atoms: _18  and  _20
REMARK    8  A    between atoms: _20  and  _21
REMARK    9  A    between atoms: _20  and  _23
REMARK   10  A    between atoms: _23  and  _24
REMARK   11  A    between atoms: _27  and  _29
REMARK   12  A    between atoms: _29  and  _30
REMARK   13  A    between atoms: _29  and  _32
REMARK   14  A    between atoms: _32  and  _33
REMARK   15  A    between atoms: _36  and  _38
REMARK   16  A    between atoms: _38  and  _39
REMARK   17  A    between atoms: _38  and  _41
REMARK   18  A    between atoms: _41  and  _42
REMARK   19  A    between atoms: _45  and  _47
REMARK   20  A    between atoms: _47  and  _48
REMARK   21  A    between atoms: _47  and  _50
REMARK   22  A    between atoms: _50  and  _51
REMARK   23  A    between atoms: _54  and  _56
REMARK   24  A    between atoms: _56  and  _57
REMARK   25  A    between atoms: _56  and  _59
REMARK   26  A    between atoms: _59  and  _60
REMARK   27  A    between atoms: _63  and  _65
REMARK   28  A    between atoms: _65  and  _66
REMARK   29  A    between atoms: _68  and  _70
REMARK   30  A    between atoms: _70  and  _71
REMARK   31  A    between atoms: _74  and  _76
REMARK   32  A    between atoms: _76  and  _77
REMARK   33  A    between atoms: _76  and  _79
REMARK   34  A    between atoms: _79  and  _80
REMARK   35  A    between atoms: _83  and  _85
REMARK   36  A    between atoms: _85  and  _86
REMARK   37  A    between atoms: _85  and  _88
REMARK   38  A    between atoms: _88  and  _89
REMARK   39  A    between atoms: _92  and  _94
REMARK   40  A    between atoms: _94  and  _95
REMARK   41  A    between atoms: _94  and  _97
REMARK   42  A    between atoms: _97  and  _98
REMARK   43  A    between atoms: _101  and  _103
REMARK   44  A    between atoms: _103  and  _104
REMARK   45  A    between atoms: _103  and  _106
REMARK   46  A    between atoms: _109  and  _111
REMARK   47  A    between atoms: _111  and  _112
REMARK   48  A    between atoms: _111  and  _114
REMARK   49  A    between atoms: _115  and  _116
REMARK   50  A    between atoms: _116  and  _117
REMARK   51  A    between atoms: _117  and  _118
REMARK   52  A    between atoms: _122  and  _124
REMARK   53  A    between atoms: _124  and  _125
REMARK   54  A    between atoms: _124  and  _127
REMARK   55  A    between atoms: _127  and  _128
REMARK   56  A    between atoms: _128  and  _129
REMARK   57  A    between atoms: _131  and  _133
REMARK   58  A    between atoms: _133  and  _134
REMARK   59  A    between atoms: _133  and  _136
REMARK   60  A    between atoms: _136  and  _137
REMARK   61  A    between atoms: _140  and  _142
REMARK   62  A    between atoms: _142  and  _143
REMARK   63  A    between atoms: _145  and  _147
REMARK   64  A    between atoms: _147  and  _148
REMARK   65  A    between atoms: _150  and  _152
REMARK   66  A    between atoms: _152  and  _153
REMARK   67  A    between atoms: _152  and  _155
REMARK   68  A    between atoms: _155  and  _156
REMARK   69  A    between atoms: _159  and  _161
REMARK   70  A    between atoms: _161  and  _162
REMARK   71  A    between atoms: _164  and  _166
REMARK   72  A    between atoms: _166  and  _167
REMARK   73  A    between atoms: _169  and  _171
REMARK   74  A    between atoms: _171  and  _172
REMARK   75  A    between atoms: _171  and  _174
REMARK   76  A    between atoms: _174  and  _175
REMARK   77  A    between atoms: _181  and  _183
REMARK   78  A    between atoms: _183  and  _184
REMARK   79  A    between atoms: _183  and  _186
REMARK   80  A    between atoms: _186  and  _187
REMARK   81  A    between atoms: _190  and  _192
REMARK   82  A    between atoms: _192  and  _193
REMARK   83  A    between atoms: _192  and  _195
REMARK   84  A    between atoms: _198  and  _200
REMARK   85  A    between atoms: _200  and  _201
REMARK   86  A    between atoms: _200  and  _203
REMARK   87  A    between atoms: _203  and  _204
REMARK   88  A    between atoms: _207  and  _209
REMARK   89  A    between atoms: _209  and  _210
REMARK   90  A    between atoms: _209  and  _212
REMARK   91  A    between atoms: _212  and  _213
REMARK   92  A    between atoms: _217  and  _218
REMARK   93  A    between atoms: _223  and  _225
REMARK   94  A    between atoms: _225  and  _226
REMARK   95  A    between atoms: _225  and  _228
REMARK   96  A    between atoms: _231  and  _233
REMARK   97  A    between atoms: _233  and  _234
REMARK   98  A    between atoms: _233  and  _236
REMARK   99  A    between atoms: _236  and  _237
REMARK  100  A    between atoms: _242  and  _244
REMARK  101  A    between atoms: _244  and  _245
REMARK  102  A    between atoms: _244  and  _247
REMARK  103  A    between atoms: _247  and  _248
REMARK  104  A    between atoms: _251  and  _253
REMARK  105  A    between atoms: _253  and  _254
REMARK  106  A    between atoms: _253  and  _256
REMARK  107  A    between atoms: _256  and  _257
REMARK  108  A    between atoms: _260  and  _262
REMARK  109  A    between atoms: _262  and  _263
REMARK  110  A    between atoms: _265  and  _267
REMARK  111  A    between atoms: _267  and  _268
REMARK  112  A    between atoms: _267  and  _270
REMARK  113  A    between atoms: _270  and  _271
REMARK  114  A    between atoms: _271  and  _272
REMARK  115  A    between atoms: _272  and  _273
REMARK  116  A    between atoms: _282  and  _284
REMARK  117  A    between atoms: _284  and  _285
REMARK  118  A    between atoms: _284  and  _287
REMARK  119  A    between atoms: _287  and  _288
REMARK  120  A    between atoms: _293  and  _295
REMARK  121  A    between atoms: _295  and  _296
REMARK  122  A    between atoms: _295  and  _298
REMARK  123  A    between atoms: _298  and  _299
REMARK  124  A    between atoms: _299  and  _300
REMARK  125  A    between atoms: _300  and  _301
REMARK  126  A    between atoms: _310  and  _312
REMARK  127  A    between atoms: _312  and  _313
REMARK  128  A    between atoms: _312  and  _315
REMARK  129  A    between atoms: _315  and  _316
REMARK  130  A    between atoms: _319  and  _321
REMARK  131  A    between atoms: _321  and  _322
REMARK  132  A    between atoms: _321  and  _324
REMARK  133  A    between atoms: _324  and  _325
REMARK  134  A    between atoms: _328  and  _330
REMARK  135  A    between atoms: _330  and  _331
REMARK  136  A    between atoms: _330  and  _333
REMARK  137  A    between atoms: _333  and  _334
REMARK  138  A    between atoms: _337  and  _339
REMARK  139  A    between atoms: _339  and  _340
REMARK  140  A    between atoms: _339  and  _342
REMARK  141  A    between atoms: _342  and  _343
REMARK  142  A    between atoms: _346  and  _348
REMARK  143  A    between atoms: _348  and  _349
REMARK  144  A    between atoms: _351  and  _353
REMARK  145  A    between atoms: _353  and  _354
REMARK  146  A    between atoms: _357  and  _359
REMARK  147  A    between atoms: _359  and  _360
REMARK  148  A    between atoms: _359  and  _362
REMARK  149  A    between atoms: _362  and  _363
REMARK  150  A    between atoms: _366  and  _368
REMARK  151  A    between atoms: _368  and  _369
REMARK  152  A    between atoms: _368  and  _371
REMARK  153  A    between atoms: _371  and  _372
REMARK  154  A    between atoms: _375  and  _377
REMARK  155  A    between atoms: _377  and  _378
REMARK  156  A    between atoms: _377  and  _380
REMARK  157  A    between atoms: _380  and  _381
REMARK  158  A    between atoms: _384  and  _386
REMARK  159  A    between atoms: _386  and  _387
REMARK  160  A    between atoms: _386  and  _389
REMARK  161  A    between atoms: _392  and  _394
REMARK  162  A    between atoms: _394  and  _395
REMARK  163  A    between atoms: _394  and  _397
REMARK  164  A    between atoms: _397  and  _398
REMARK  165  A    between atoms: _401  and  _403
REMARK  166  A    between atoms: _403  and  _404
REMARK  167  A    between atoms: _403  and  _406
REMARK  168  A    between atoms: _406  and  _407
REMARK  169  A    between atoms: _407  and  _408
REMARK  170  A    between atoms: _408  and  _409
REMARK  171  A    between atoms: _409  and  _410
REMARK  172  A    between atoms: _414  and  _416
REMARK  173  A    between atoms: _416  and  _417
REMARK  174  A    between atoms: _416  and  _419
REMARK  175  A    between atoms: _419  and  _420
REMARK  176  A    between atoms: _420  and  _421
REMARK  177  A    between atoms: _423  and  _425
REMARK  178  A    between atoms: _425  and  _426
REMARK  179  A    between atoms: _425  and  _428
REMARK  180  A    between atoms: _428  and  _429
REMARK  181  A    between atoms: _432  and  _434
REMARK  182  A    between atoms: _434  and  _435
REMARK  183  A    between atoms: _437  and  _439
REMARK  184  A    between atoms: _439  and  _440
REMARK  185  A    between atoms: _442  and  _444
REMARK  186  A    between atoms: _444  and  _445
REMARK  187  A    between atoms: _444  and  _447
REMARK  188  A    between atoms: _447  and  _448
REMARK  189  A    between atoms: _451  and  _453
REMARK  190  A    between atoms: _453  and  _454
REMARK  191  A    between atoms: _456  and  _458
REMARK  192  A    between atoms: _458  and  _459
REMARK  193  A    between atoms: _461  and  _463
REMARK  194  A    between atoms: _463  and  _464
REMARK  195  A    between atoms: _463  and  _466
REMARK  196  A    between atoms: _466  and  _467
REMARK  197  A    between atoms: _473  and  _475
REMARK  198  A    between atoms: _475  and  _476
REMARK  199  A    between atoms: _475  and  _478
REMARK  200  A    between atoms: _478  and  _479
REMARK  201  A    between atoms: _482  and  _484
REMARK  202  A    between atoms: _484  and  _485
REMARK  203  A    between atoms: _484  and  _487
REMARK  204  A    between atoms: _490  and  _492
REMARK  205  A    between atoms: _492  and  _493
REMARK  206  A    between atoms: _492  and  _495
REMARK  207  A    between atoms: _495  and  _496
REMARK  208  A    between atoms: _499  and  _501
REMARK  209  A    between atoms: _501  and  _502
REMARK  210  A    between atoms: _501  and  _504
REMARK  211  A    between atoms: _504  and  _505
REMARK  212  A    between atoms: _509  and  _510
REMARK  213  A    between atoms: _515  and  _517
REMARK  214  A    between atoms: _517  and  _518
REMARK  215  A    between atoms: _517  and  _520
REMARK  216  A    between atoms: _523  and  _525
REMARK  217  A    between atoms: _525  and  _526
REMARK  218  A    between atoms: _525  and  _528
REMARK  219  A    between atoms: _528  and  _529
REMARK  220  A    between atoms: _534  and  _536
REMARK  221  A    between atoms: _536  and  _537
REMARK  222  A    between atoms: _536  and  _539
REMARK  223  A    between atoms: _539  and  _540
REMARK  224  A    between atoms: _543  and  _545
REMARK  225  A    between atoms: _545  and  _546
REMARK  226  A    between atoms: _545  and  _548
REMARK  227  A    between atoms: _548  and  _549
REMARK  228  A    between atoms: _552  and  _554
REMARK  229  A    between atoms: _554  and  _555
REMARK  230  A    between atoms: _557  and  _559
REMARK  231  A    between atoms: _559  and  _560
REMARK  232  A    between atoms: _559  and  _562
REMARK  233  A    between atoms: _562  and  _563
REMARK  234  A    between atoms: _563  and  _564
REMARK  235  A    between atoms: _564  and  _565
REMARK  236  A    between atoms: _574  and  _576
REMARK  237  A    between atoms: _576  and  _577
REMARK  238  A    between atoms: _576  and  _579
REMARK  239  A    between atoms: _579  and  _580
REMARK                            x       y       z     vdW  Elec       q    Type
REMARK                         _______ _______ _______ _____ _____    ______ ____
ROOT
ATOM      1  C   GLY A   5      19.318  31.384   8.496  0.00  0.00    +0.243 C 
ATOM      2  N   ILE A   6      18.788  31.943   9.586  0.00  0.00    -0.297 N 
ATOM      3  H   ILE A   6      19.094  31.652  10.536  0.00  0.00    +0.150 HD
ATOM      4  O   GLY A   5      18.946  31.646   7.358  0.00  0.00    -0.273 OA
ENDROOT
BRANCH   2   5
ATOM      5  CA  ILE A   6      17.769  32.973   9.411  0.00  0.00    +0.149 C 
BRANCH   5   6
ATOM      6  C   ILE A   6      18.398  34.179   8.708  0.00  0.00    +0.241 C 
ATOM      7  O   ILE A   6      19.522  34.623   9.034  0.00  0.00    -0.273 OA
ATOM      8  N   GLY A   7      17.711  34.688   7.696  0.00  0.00    -0.295 N 
ATOM      9  H   GLY A   7      16.788  34.284   7.439  0.00  0.00    +0.150 HD
BRANCH   8  10
ATOM     10  CA  GLY A   7      18.239  35.795   6.955  0.00  0.00    +0.176 C 
BRANCH  10  11
ATOM     11  C   GLY A   7      19.086  35.388   5.771  0.00  0.00    +0.243 C 
ATOM     12  N   GLY A   8      19.385  34.117   5.590  0.00  0.00    -0.295 N 
ATOM     13  H   GLY A   8      19.106  33.395   6.285  0.00  0.00    +0.150 HD
ATOM     14  O   GLY A   7      19.479  36.253   5.003  0.00  0.00    -0.273 OA
BRANCH  12  15
ATOM     15  CA  GLY A   8      20.120  33.757   4.384  0.00  0.00    +0.176 C 
BRANCH  15  16
ATOM     16  C   GLY A   8      21.473  33.126   4.644  0.00  0.00    +0.243 C 
ATOM     17  O   GLY A   8      21.771  32.627   5.731  0.00  0.00    -0.273 OA
ATOM     18  N   PHE A   9      22.291  33.145   3.619  0.00  0.00    -0.297 N 
ATOM     19  H   PHE A   9      22.001  33.693   2.784  0.00  0.00    +0.150 HD
BRANCH  18  20
ATOM     20  CA  PHE A   9      23.562  32.465   3.559  0.00  0.00    +0.153 C 
BRANCH  20  21
ATOM     21  C   PHE A   9      24.753  33.398   3.720  0.00  0.00    +0.241 C 
ATOM     22  N   ILE A  10      25.833  32.836   4.277  0.00  0.00    -0.298 N 
ATOM     23  H   ILE A  10      25.774  31.884   4.691  0.00  0.00    +0.150 HD
ATOM     24  O   PHE A   9      24.718  34.549   3.311  0.00  0.00    -0.273 OA
BRANCH  22  25
ATOM     25  CA  ILE A  10      27.106  33.578   4.298  0.00  0.00    +0.137 C 
BRANCH  25  26
ATOM     26  C   ILE A  10      28.190  32.636   3.815  0.00  0.00    +0.227 C 
ATOM     27  O   ILE A  10      28.095  31.399   3.913  0.00  0.00    -0.286 OA
ENDBRANCH  25  26
BRANCH  25  28
ATOM     28  CB  ILE A  10      27.415  34.152   5.693  0.00  0.00    +0.026 C 
ATOM     29  CG2 ILE A  10      26.368  35.191   6.071  0.00  0.00    +0.002 C 
BRANCH  28  30
ATOM     30  CG1 ILE A  10      27.493  33.089   6.787  0.00  0.00    +0.002 C 
ATOM     31  CD1 ILE A  10      28.157  33.642   8.026  0.00  0.00    +0.000 C 
ENDBRANCH  28  30
ENDBRANCH  25  28
ENDBRANCH  22  25
ENDBRANCH  20  21
BRANCH  20  32
ATOM     32  CB  PHE A   9      23.728  31.765   2.183  0.00  0.00    +0.055 C 
BRANCH  32  33
ATOM     33  CG  PHE A   9      22.905  30.490   2.085  0.00  0.00    -0.020 A 
ATOM     34  CD2 PHE A   9      23.426  29.262   2.439  0.00  0.00    -0.004 A 
ATOM     35  CE2 PHE A   9      22.630  28.124   2.350  0.00  0.00    -0.000 A 
ATOM     36  CZ  PHE A   9      21.328  28.279   1.924  0.00  0.00    -0.000 A 
ATOM     37  CE1 PHE A   9      20.813  29.498   1.561  0.00  0.00    -0.000 A 
ATOM     38  CD1 PHE A   9      21.597  30.626   1.643  0.00  0.00    -0.004 A 
ENDBRANCH  32  33
ENDBRANCH  20  32
ENDBRANCH  18  20
ENDBRANCH  15  16
ENDBRANCH  12  15
ENDBRANCH  10  11
ENDBRANCH   8  10
ENDBRANCH   5   6
BRANCH   5  39
ATOM     39  CB  ILE A   6      17.136  33.366  10.764  0.00  0.00    +0.027 C 
ATOM     40  CG2 ILE A   6      16.314  34.632  10.577  0.00  0.00    +0.002 C 
BRANCH  39  41
ATOM     41  CG1 ILE A   6      16.392  32.209  11.415  0.00  0.00    +0.002 C 
ATOM     42  CD1 ILE A   6      15.172  31.742  10.675  0.00  0.00    +0.000 C 
ENDBRANCH  39  41
ENDBRANCH   5  39
ENDBRANCH   2   5
BRANCH   1  43
ATOM     43  CA  GLY A   5      20.452  30.405   8.738  0.00  0.00    +0.176 C 
BRANCH  43  46
ATOM     44  C   GLY A   4      21.849  29.223   7.172  0.00  0.00    +0.243 C 
ATOM     45  O   GLY A   4      21.809  28.200   7.860  0.00  0.00    -0.273 OA
ATOM     46  N   GLY A   5      21.254  30.342   7.540  0.00  0.00    -0.295 N 
ATOM     47  H   GLY A   5      21.365  31.195   6.955  0.00  0.00    +0.150 HD
BRANCH  44  48
ATOM     48  CA  GLY A   4      22.581  29.293   5.856  0.00  0.00    +0.176 C 
BRANCH  48  50
ATOM     49  C   ILE A   3      24.952  29.068   5.472  0.00  0.00    +0.241 C 
ATOM     50  N   GLY A   4      23.784  28.486   5.817  0.00  0.00    -0.295 N 
ATOM     51  H   GLY A   4      23.748  27.473   6.051  0.00  0.00    +0.150 HD
ATOM     52  O   ILE A   3      25.119  30.258   5.244  0.00  0.00    -0.273 OA
BRANCH  49  53
ATOM     53  CA  ILE A   3      26.137  28.108   5.411  0.00  0.00    +0.149 C 
BRANCH  53  55
ATOM     54  C   MET A   2      27.565  27.848   3.453  0.00  0.00    +0.241 C 
ATOM     55  N   ILE A   3      27.060  28.592   4.414  0.00  0.00    -0.297 N 
ATOM     56  H   ILE A   3      27.344  29.591   4.457  0.00  0.00    +0.150 HD
ATOM     57  O   MET A   2      27.337  26.652   3.350  0.00  0.00    -0.273 OA
BRANCH  54  58
ATOM     58  CA  MET A   2      28.479  28.528   2.430  0.00  0.00    +0.149 C 
BRANCH  58  61
ATOM     59  C   LYS A   1      30.778  27.962   2.205  0.00  0.00    +0.238 C 
ATOM     60  O   LYS A   1      31.121  29.100   2.501  0.00  0.00    -0.274 OA
ATOM     61  N   MET A   2      29.532  27.610   2.056  0.00  0.00    -0.297 N 
ATOM     62  H   MET A   2      29.296  26.674   1.670  0.00  0.00    +0.150 HD
BRANCH  59  63
ATOM     63  CA  LYS A   1      31.811  26.862   1.996  0.00  0.00    +0.145 C 
BRANCH  63  64
ATOM     64  N   LYS A   1      33.114  27.456   1.820  0.00  0.00    -0.238 NA
ATOM     65  H   LYS A   1      33.324  28.327   2.348  0.00  0.00    +0.142 HD
ENDBRANCH  63  64
BRANCH  63  66
ATOM     66  CB  LYS A   1      31.871  25.956   3.222  0.00  0.00    +0.026 C 
BRANCH  66  67
ATOM     67  CG  LYS A   1      30.662  25.475   3.956  0.00  0.00    -0.000 C 
BRANCH  67  68
ATOM     68  CD  LYS A   1      30.956  24.745   5.245  0.00  0.00    -0.024 C 
BRANCH  68  69
ATOM     69  CE  LYS A   1      29.790  23.872   5.700  0.00  0.00    -0.086 C 
BRANCH  69  70
ATOM     70  NZ  LYS A   1      30.043  22.434   5.403  0.00  0.00    +0.380 N 
ATOM     71  HZ1 LYS A   1      30.903  22.125   5.900  0.00  0.00    -0.089 HD
ATOM     72  HZ2 LYS A   1      29.232  21.867   5.724  0.00  0.00    -0.089 HD
ATOM     73  HZ3 LYS A   1      30.170  22.310   4.378  0.00  0.00    -0.089 HD
ENDBRANCH  69  70
ENDBRANCH  68  69
ENDBRANCH  67  68
ENDBRANCH  66  67
ENDBRANCH  63  66
ENDBRANCH  59  63
ENDBRANCH  58  61
BRANCH  58  74
ATOM     74  CB  MET A   2      27.730  28.934   1.172  0.00  0.00    +0.041 C 
BRANCH  74  75
ATOM     75  CG  MET A   2      28.450  29.861   0.174  0.00  0.00    +0.060 C 
BRANCH  75  76
ATOM     76  SD  MET A   2      27.439  30.064  -1.318  0.00  0.00    -0.139 S 
ATOM     77  CE  MET A   2      25.955  30.720  -0.556  0.00  0.00    +0.069 C 
ENDBRANCH  75  76
ENDBRANCH  74  75
ENDBRANCH  58  74
ENDBRANCH  54  58
ENDBRANCH  53  55
BRANCH  53  78
ATOM     78  CB  ILE A   3      26.759  27.978   6.806  0.00  0.00    +0.027 C 
ATOM     79  CG2 ILE A   3      27.753  26.821   6.836  0.00  0.00    +0.002 C 
BRANCH  78  80
ATOM     80  CG1 ILE A   3      27.382  29.282   7.316  0.00  0.00    +0.002 C 
ATOM     81  CD1 ILE A   3      27.841  29.235   8.772  0.00  0.00    +0.000 C 
ENDBRANCH  78  80
ENDBRANCH  53  78
ENDBRANCH  49  53
ENDBRANCH  48  50
ENDBRANCH  44  48
ENDBRANCH  43  46
ENDBRANCH   1  43
TORSDOF 36
REMARK  Name = ../refined-set-2016/1sdu/1sdu_pocket.pdb
REMARK  239 active torsions:
REMARK  status: ('A' for Active; 'I' for Inactive)
REMARK    1  A    between atoms: _1  and  _3
REMARK    2  A    between atoms: _3  and  _4
REMARK    3  A    between atoms: _3  and  _6
REMARK    4  A    between atoms: _6  and  _7
REMARK    5  A    between atoms: _7  and  _8
REMARK    6  A    between atoms: _8  and  _9
REMARK    7  A    between atoms: _18  and  _20
REMARK    8  A    between atoms: _20  and  _21
REMARK    9  A    between atoms: _20  and  _23
REMARK   10  A    between atoms: _23  and  _24
REMARK   11  A    between atoms: _27  and  _29
REMARK   12  A    between atoms: _29  and  _30
REMARK   13  A    between atoms: _29  and  _32
REMARK   14  A    between atoms: _32  and  _33
REMARK   15  A    between atoms: _36  and  _38
REMARK   16  A    between atoms: _38  and  _39
REMARK   17  A    between atoms: _38  and  _41
REMARK   18  A    between atoms: _41  and  _42
REMARK   19  A    between atoms: _45  and  _47
REMARK   20  A    between atoms: _47  and  _48
REMARK   21  A    between atoms: _47  and  _50
REMARK   22  A    between atoms: _50  and  _51
REMARK   23  A    between atoms: _54  and  _56
REMARK   24  A    between atoms: _56  and  _57
REMARK   25  A    between atoms: _56  and  _59
REMARK   26  A    between atoms: _59  and  _60
REMARK   27  A    between atoms: _63  and  _65
REMARK   28  A    between atoms: _65  and  _66
REMARK   29  A    between atoms: _68  and  _70
REMARK   30  A    between atoms: _70  and  _71
REMARK   31  A    between atoms: _74  and  _76
REMARK   32  A    between atoms: _76  and  _77
REMARK   33  A    between atoms: _76  and  _79
REMARK   34  A    between atoms: _79  and  _80
REMARK   35  A    between atoms: _83  and  _85
REMARK   36  A    between atoms: _85  and  _86
REMARK   37  A    between atoms: _85  and  _88
REMARK   38  A    between atoms: _88  and  _89
REMARK   39  A    between atoms: _92  and  _94
REMARK   40  A    between atoms: _94  and  _95
REMARK   41  A    between atoms: _94  and  _97
REMARK   42  A    between atoms: _97  and  _98
REMARK   43  A    between atoms: _101  and  _103
REMARK   44  A    between atoms: _103  and  _104
REMARK   45  A    between atoms: _103  and  _106
REMARK   46  A    between atoms: _109  and  _111
REMARK   47  A    between atoms: _111  and  _112
REMARK   48  A    between atoms: _111  and  _114
REMARK   49  A    between atoms: _115  and  _116
REMARK   50  A    between atoms: _116  and  _117
REMARK   51  A    between atoms: _117  and  _118
REMARK   52  A    between atoms: _122  and  _124
REMARK   53  A    between atoms: _124  and  _125
REMARK   54  A    between atoms: _124  and  _127
REMARK   55  A    between atoms: _127  and  _128
REMARK   56  A    between atoms: _128  and  _129
REMARK   57  A    between atoms: _131  and  _133
REMARK   58  A    between atoms: _133  and  _134
REMARK   59  A    between atoms: _133  and  _136
REMARK   60  A    between atoms: _136  and  _137
REMARK   61  A    between atoms: _140  and  _142
REMARK   62  A    between atoms: _142  and  _143
REMARK   63  A    between atoms: _145  and  _147
REMARK   64  A    between atoms: _147  and  _148
REMARK   65  A    between atoms: _150  and  _152
REMARK   66  A    between atoms: _152  and  _153
REMARK   67  A    between atoms: _152  and  _155
REMARK   68  A    between atoms: _155  and  _156
REMARK   69  A    between atoms: _159  and  _161
REMARK   70  A    between atoms: _161  and  _162
REMARK   71  A    between atoms: _164  and  _166
REMARK   72  A    between atoms: _166  and  _167
REMARK   73  A    between atoms: _169  and  _171
REMARK   74  A    between atoms: _171  and  _172
REMARK   75  A    between atoms: _171  and  _174
REMARK   76  A    between atoms: _174  and  _175
REMARK   77  A    between atoms: _181  and  _183
REMARK   78  A    between atoms: _183  and  _184
REMARK   79  A    between atoms: _183  and  _186
REMARK   80  A    between atoms: _186  and  _187
REMARK   81  A    between atoms: _190  and  _192
REMARK   82  A    between atoms: _192  and  _193
REMARK   83  A    between atoms: _192  and  _195
REMARK   84  A    between atoms: _198  and  _200
REMARK   85  A    between atoms: _200  and  _201
REMARK   86  A    between atoms: _200  and  _203
REMARK   87  A    between atoms: _203  and  _204
REMARK   88  A    between atoms: _207  and  _209
REMARK   89  A    between atoms: _209  and  _210
REMARK   90  A    between atoms: _209  and  _212
REMARK   91  A    between atoms: _212  and  _213
REMARK   92  A    between atoms: _217  and  _218
REMARK   93  A    between atoms: _223  and  _225
REMARK   94  A    between atoms: _225  and  _226
REMARK   95  A    between atoms: _225  and  _228
REMARK   96  A    between atoms: _231  and  _233
REMARK   97  A    between atoms: _233  and  _234
REMARK   98  A    between atoms: _233  and  _236
REMARK   99  A    between atoms: _236  and  _237
REMARK  100  A    between atoms: _242  and  _244
REMARK  101  A    between atoms: _244  and  _245
REMARK  102  A    between atoms: _244  and  _247
REMARK  103  A    between atoms: _247  and  _248
REMARK  104  A    between atoms: _251  and  _253
REMARK  105  A    between atoms: _253  and  _254
REMARK  106  A    between atoms: _253  and  _256
REMARK  107  A    between atoms: _256  and  _257
REMARK  108  A    between atoms: _260  and  _262
REMARK  109  A    between atoms: _262  and  _263
REMARK  110  A    between atoms: _265  and  _267
REMARK  111  A    between atoms: _267  and  _268
REMARK  112  A    between atoms: _267  and  _270
REMARK  113  A    between atoms: _270  and  _271
REMARK  114  A    between atoms: _271  and  _272
REMARK  115  A    between atoms: _272  and  _273
REMARK  116  A    between atoms: _282  and  _284
REMARK  117  A    between atoms: _284  and  _285
REMARK  118  A    between atoms: _284  and  _287
REMARK  119  A    between atoms: _287  and  _288
REMARK  120  A    between atoms: _293  and  _295
REMARK  121  A    between atoms: _295  and  _296
REMARK  122  A    between atoms: _295  and  _298
REMARK  123  A    between atoms: _298  and  _299
REMARK  124  A    between atoms: _299  and  _300
REMARK  125  A    between atoms: _300  and  _301
REMARK  126  A    between atoms: _310  and  _312
REMARK  127  A    between atoms: _312  and  _313
REMARK  128  A    between atoms: _312  and  _315
REMARK  129  A    between atoms: _315  and  _316
REMARK  130  A    between atoms: _319  and  _321
REMARK  131  A    between atoms: _321  and  _322
REMARK  132  A    between atoms: _321  and  _324
REMARK  133  A    between atoms: _324  and  _325
REMARK  134  A    between atoms: _328  and  _330
REMARK  135  A    between atoms: _330  and  _331
REMARK  136  A    between atoms: _330  and  _333
REMARK  137  A    between atoms: _333  and  _334
REMARK  138  A    between atoms: _337  and  _339
REMARK  139  A    between atoms: _339  and  _340
REMARK  140  A    between atoms: _339  and  _342
REMARK  141  A    between atoms: _342  and  _343
REMARK  142  A    between atoms: _346  and  _348
REMARK  143  A    between atoms: _348  and  _349
REMARK  144  A    between atoms: _351  and  _353
REMARK  145  A    between atoms: _353  and  _354
REMARK  146  A    between atoms: _357  and  _359
REMARK  147  A    between atoms: _359  and  _360
REMARK  148  A    between atoms: _359  and  _362
REMARK  149  A    between atoms: _362  and  _363
REMARK  150  A    between atoms: _366  and  _368
REMARK  151  A    between atoms: _368  and  _369
REMARK  152  A    between atoms: _368  and  _371
REMARK  153  A    between atoms: _371  and  _372
REMARK  154  A    between atoms: _375  and  _377
REMARK  155  A    between atoms: _377  and  _378
REMARK  156  A    between atoms: _377  and  _380
REMARK  157  A    between atoms: _380  and  _381
REMARK  158  A    between atoms: _384  and  _386
REMARK  159  A    between atoms: _386  and  _387
REMARK  160  A    between atoms: _386  and  _389
REMARK  161  A    between atoms: _392  and  _394
REMARK  162  A    between atoms: _394  and  _395
REMARK  163  A    between atoms: _394  and  _397
REMARK  164  A    between atoms: _397  and  _398
REMARK  165  A    between atoms: _401  and  _403
REMARK  166  A    between atoms: _403  and  _404
REMARK  167  A    between atoms: _403  and  _406
REMARK  168  A    between atoms: _406  and  _407
REMARK  169  A    between atoms: _407  and  _408
REMARK  170  A    between atoms: _408  and  _409
REMARK  171  A    between atoms: _409  and  _410
REMARK  172  A    between atoms: _414  and  _416
REMARK  173  A    between atoms: _416  and  _417
REMARK  174  A    between atoms: _416  and  _419
REMARK  175  A    between atoms: _419  and  _420
REMARK  176  A    between atoms: _420  and  _421
REMARK  177  A    between atoms: _423  and  _425
REMARK  178  A    between atoms: _425  and  _426
REMARK  179  A    between atoms: _425  and  _428
REMARK  180  A    between atoms: _428  and  _429
REMARK  181  A    between atoms: _432  and  _434
REMARK  182  A    between atoms: _434  and  _435
REMARK  183  A    between atoms: _437  and  _439
REMARK  184  A    between atoms: _439  and  _440
REMARK  185  A    between atoms: _442  and  _444
REMARK  186  A    between atoms: _444  and  _445
REMARK  187  A    between atoms: _444  and  _447
REMARK  188  A    between atoms: _447  and  _448
REMARK  189  A    between atoms: _451  and  _453
REMARK  190  A    between atoms: _453  and  _454
REMARK  191  A    between atoms: _456  and  _458
REMARK  192  A    between atoms: _458  and  _459
REMARK  193  A    between atoms: _461  and  _463
REMARK  194  A    between atoms: _463  and  _464
REMARK  195  A    between atoms: _463  and  _466
REMARK  196  A    between atoms: _466  and  _467
REMARK  197  A    between atoms: _473  and  _475
REMARK  198  A    between atoms: _475  and  _476
REMARK  199  A    between atoms: _475  and  _478
REMARK  200  A    between atoms: _478  and  _479
REMARK  201  A    between atoms: _482  and  _484
REMARK  202  A    between atoms: _484  and  _485
REMARK  203  A    between atoms: _484  and  _487
REMARK  204  A    between atoms: _490  and  _492
REMARK  205  A    between atoms: _492  and  _493
REMARK  206  A    between atoms: _492  and  _495
REMARK  207  A    between atoms: _495  and  _496
REMARK  208  A    between atoms: _499  and  _501
REMARK  209  A    between atoms: _501  and  _502
REMARK  210  A    between atoms: _501  and  _504
REMARK  211  A    between atoms: _504  and  _505
REMARK  212  A    between atoms: _509  and  _510
REMARK  213  A    between atoms: _515  and  _517
REMARK  214  A    between atoms: _517  and  _518
REMARK  215  A    between atoms: _517  and  _520
REMARK  216  A    between atoms: _523  and  _525
REMARK  217  A    between atoms: _525  and  _526
REMARK  218  A    between atoms: _525  and  _528
REMARK  219  A    between atoms: _528  and  _529
REMARK  220  A    between atoms: _534  and  _536
REMARK  221  A    between atoms: _536  and  _537
REMARK  222  A    between atoms: _536  and  _539
REMARK  223  A    between atoms: _539  and  _540
REMARK  224  A    between atoms: _543  and  _545
REMARK  225  A    between atoms: _545  and  _546
REMARK  226  A    between atoms: _545  and  _548
REMARK  227  A    between atoms: _548  and  _549
REMARK  228  A    between atoms: _552  and  _554
REMARK  229  A    between atoms: _554  and  _555
REMARK  230  A    between atoms: _557  and  _559
REMARK  231  A    between atoms: _559  and  _560
REMARK  232  A    between atoms: _559  and  _562
REMARK  233  A    between atoms: _562  and  _563
REMARK  234  A    between atoms: _563  and  _564
REMARK  235  A    between atoms: _564  and  _565
REMARK  236  A    between atoms: _574  and  _576
REMARK  237  A    between atoms: _576  and  _577
REMARK  238  A    between atoms: _576  and  _579
REMARK  239  A    between atoms: _579  and  _580
REMARK                            x       y       z     vdW  Elec       q    Type
REMARK                         _______ _______ _______ _____ _____    ______ ____
ROOT
ATOM      1  CA  VAL A   1      32.871  30.958   5.366  0.00  0.00    +0.133 C 
ENDROOT
BRANCH   1   2
ATOM      2  CB  VAL A   1      32.187  30.227   6.535  0.00  0.00    +0.023 C 
ATOM      3  CG2 VAL A   1      31.074  31.066   7.082  0.00  0.00    +0.002 C 
ATOM      4  CG1 VAL A   1      31.651  28.885   6.092  0.00  0.00    +0.002 C 
ENDBRANCH   1   2
BRANCH   1   5
ATOM      5  N   VAL A   1      31.937  31.249   4.288  0.00  0.00    -0.239 NA
ATOM      6  H   VAL A   1      31.676  30.475   3.644  0.00  0.00    +0.142 HD
ENDBRANCH   1   5
BRANCH   1   7
ATOM      7  C   VAL A   1      34.048  30.146   4.856  0.00  0.00    +0.224 C 
ATOM      8  O   VAL A   1      33.985  29.555   3.770  0.00  0.00    -0.287 OA
ENDBRANCH   1   7
TORSDOF 3
REMARK  Name = ../refined-set-2016/1sdu/1sdu_pocket.pdb
REMARK  239 active torsions:
REMARK  status: ('A' for Active; 'I' for Inactive)
REMARK    1  A    between atoms: _1  and  _3
REMARK    2  A    between atoms: _3  and  _4
REMARK    3  A    between atoms: _3  and  _6
REMARK    4  A    between atoms: _6  and  _7
REMARK    5  A    between atoms: _7  and  _8
REMARK    6  A    between atoms: _8  and  _9
REMARK    7  A    between atoms: _18  and  _20
REMARK    8  A    between atoms: _20  and  _21
REMARK    9  A    between atoms: _20  and  _23
REMARK   10  A    between atoms: _23  and  _24
REMARK   11  A    between atoms: _27  and  _29
REMARK   12  A    between atoms: _29  and  _30
REMARK   13  A    between atoms: _29  and  _32
REMARK   14  A    between atoms: _32  and  _33
REMARK   15  A    between atoms: _36  and  _38
REMARK   16  A    between atoms: _38  and  _39
REMARK   17  A    between atoms: _38  and  _41
REMARK   18  A    between atoms: _41  and  _42
REMARK   19  A    between atoms: _45  and  _47
REMARK   20  A    between atoms: _47  and  _48
REMARK   21  A    between atoms: _47  and  _50
REMARK   22  A    between atoms: _50  and  _51
REMARK   23  A    between atoms: _54  and  _56
REMARK   24  A    between atoms: _56  and  _57
REMARK   25  A    between atoms: _56  and  _59
REMARK   26  A    between atoms: _59  and  _60
REMARK   27  A    between atoms: _63  and  _65
REMARK   28  A    between atoms: _65  and  _66
REMARK   29  A    between atoms: _68  and  _70
REMARK   30  A    between atoms: _70  and  _71
REMARK   31  A    between atoms: _74  and  _76
REMARK   32  A    between atoms: _76  and  _77
REMARK   33  A    between atoms: _76  and  _79
REMARK   34  A    between atoms: _79  and  _80
REMARK   35  A    between atoms: _83  and  _85
REMARK   36  A    between atoms: _85  and  _86
REMARK   37  A    between atoms: _85  and  _88
REMARK   38  A    between atoms: _88  and  _89
REMARK   39  A    between atoms: _92  and  _94
REMARK   40  A    between atoms: _94  and  _95
REMARK   41  A    between atoms: _94  and  _97
REMARK   42  A    between atoms: _97  and  _98
REMARK   43  A    between atoms: _101  and  _103
REMARK   44  A    between atoms: _103  and  _104
REMARK   45  A    between atoms: _103  and  _106
REMARK   46  A    between atoms: _109  and  _111
REMARK   47  A    between atoms: _111  and  _112
REMARK   48  A    between atoms: _111  and  _114
REMARK   49  A    between atoms: _115  and  _116
REMARK   50  A    between atoms: _116  and  _117
REMARK   51  A    between atoms: _117  and  _118
REMARK   52  A    between atoms: _122  and  _124
REMARK   53  A    between atoms: _124  and  _125
REMARK   54  A    between atoms: _124  and  _127
REMARK   55  A    between atoms: _127  and  _128
REMARK   56  A    between atoms: _128  and  _129
REMARK   57  A    between atoms: _131  and  _133
REMARK   58  A    between atoms: _133  and  _134
REMARK   59  A    between atoms: _133  and  _136
REMARK   60  A    between atoms: _136  and  _137
REMARK   61  A    between atoms: _140  and  _142
REMARK   62  A    between atoms: _142  and  _143
REMARK   63  A    between atoms: _145  and  _147
REMARK   64  A    between atoms: _147  and  _148
REMARK   65  A    between atoms: _150  and  _152
REMARK   66  A    between atoms: _152  and  _153
REMARK   67  A    between atoms: _152  and  _155
REMARK   68  A    between atoms: _155  and  _156
REMARK   69  A    between atoms: _159  and  _161
REMARK   70  A    between atoms: _161  and  _162
REMARK   71  A    between atoms: _164  and  _166
REMARK   72  A    between atoms: _166  and  _167
REMARK   73  A    between atoms: _169  and  _171
REMARK   74  A    between atoms: _171  and  _172
REMARK   75  A    between atoms: _171  and  _174
REMARK   76  A    between atoms: _174  and  _175
REMARK   77  A    between atoms: _181  and  _183
REMARK   78  A    between atoms: _183  and  _184
REMARK   79  A    between atoms: _183  and  _186
REMARK   80  A    between atoms: _186  and  _187
REMARK   81  A    between atoms: _190  and  _192
REMARK   82  A    between atoms: _192  and  _193
REMARK   83  A    between atoms: _192  and  _195
REMARK   84  A    between atoms: _198  and  _200
REMARK   85  A    between atoms: _200  and  _201
REMARK   86  A    between atoms: _200  and  _203
REMARK   87  A    between atoms: _203  and  _204
REMARK   88  A    between atoms: _207  and  _209
REMARK   89  A    between atoms: _209  and  _210
REMARK   90  A    between atoms: _209  and  _212
REMARK   91  A    between atoms: _212  and  _213
REMARK   92  A    between atoms: _217  and  _218
REMARK   93  A    between atoms: _223  and  _225
REMARK   94  A    between atoms: _225  and  _226
REMARK   95  A    between atoms: _225  and  _228
REMARK   96  A    between atoms: _231  and  _233
REMARK   97  A    between atoms: _233  and  _234
REMARK   98  A    between atoms: _233  and  _236
REMARK   99  A    between atoms: _236  and  _237
REMARK  100  A    between atoms: _242  and  _244
REMARK  101  A    between atoms: _244  and  _245
REMARK  102  A    between atoms: _244  and  _247
REMARK  103  A    between atoms: _247  and  _248
REMARK  104  A    between atoms: _251  and  _253
REMARK  105  A    between atoms: _253  and  _254
REMARK  106  A    between atoms: _253  and  _256
REMARK  107  A    between atoms: _256  and  _257
REMARK  108  A    between atoms: _260  and  _262
REMARK  109  A    between atoms: _262  and  _263
REMARK  110  A    between atoms: _265  and  _267
REMARK  111  A    between atoms: _267  and  _268
REMARK  112  A    between atoms: _267  and  _270
REMARK  113  A    between atoms: _270  and  _271
REMARK  114  A    between atoms: _271  and  _272
REMARK  115  A    between atoms: _272  and  _273
REMARK  116  A    between atoms: _282  and  _284
REMARK  117  A    between atoms: _284  and  _285
REMARK  118  A    between atoms: _284  and  _287
REMARK  119  A    between atoms: _287  and  _288
REMARK  120  A    between atoms: _293  and  _295
REMARK  121  A    between atoms: _295  and  _296
REMARK  122  A    between atoms: _295  and  _298
REMARK  123  A    between atoms: _298  and  _299
REMARK  124  A    between atoms: _299  and  _300
REMARK  125  A    between atoms: _300  and  _301
REMARK  126  A    between atoms: _310  and  _312
REMARK  127  A    between atoms: _312  and  _313
REMARK  128  A    between atoms: _312  and  _315
REMARK  129  A    between atoms: _315  and  _316
REMARK  130  A    between atoms: _319  and  _321
REMARK  131  A    between atoms: _321  and  _322
REMARK  132  A    between atoms: _321  and  _324
REMARK  133  A    between atoms: _324  and  _325
REMARK  134  A    between atoms: _328  and  _330
REMARK  135  A    between atoms: _330  and  _331
REMARK  136  A    between atoms: _330  and  _333
REMARK  137  A    between atoms: _333  and  _334
REMARK  138  A    between atoms: _337  and  _339
REMARK  139  A    between atoms: _339  and  _340
REMARK  140  A    between atoms: _339  and  _342
REMARK  141  A    between atoms: _342  and  _343
REMARK  142  A    between atoms: _346  and  _348
REMARK  143  A    between atoms: _348  and  _349
REMARK  144  A    between atoms: _351  and  _353
REMARK  145  A    between atoms: _353  and  _354
REMARK  146  A    between atoms: _357  and  _359
REMARK  147  A    between atoms: _359  and  _360
REMARK  148  A    between atoms: _359  and  _362
REMARK  149  A    between atoms: _362  and  _363
REMARK  150  A    between atoms: _366  and  _368
REMARK  151  A    between atoms: _368  and  _369
REMARK  152  A    between atoms: _368  and  _371
REMARK  153  A    between atoms: _371  and  _372
REMARK  154  A    between atoms: _375  and  _377
REMARK  155  A    between atoms: _377  and  _378
REMARK  156  A    between atoms: _377  and  _380
REMARK  157  A    between atoms: _380  and  _381
REMARK  158  A    between atoms: _384  and  _386
REMARK  159  A    between atoms: _386  and  _387
REMARK  160  A    between atoms: _386  and  _389
REMARK  161  A    between atoms: _392  and  _394
REMARK  162  A    between atoms: _394  and  _395
REMARK  163  A    between atoms: _394  and  _397
REMARK  164  A    between atoms: _397  and  _398
REMARK  165  A    between atoms: _401  and  _403
REMARK  166  A    between atoms: _403  and  _404
REMARK  167  A    between atoms: _403  and  _406
REMARK  168  A    between atoms: _406  and  _407
REMARK  169  A    between atoms: _407  and  _408
REMARK  170  A    between atoms: _408  and  _409
REMARK  171  A    between atoms: _409  and  _410
REMARK  172  A    between atoms: _414  and  _416
REMARK  173  A    between atoms: _416  and  _417
REMARK  174  A    between atoms: _416  and  _419
REMARK  175  A    between atoms: _419  and  _420
REMARK  176  A    between atoms: _420  and  _421
REMARK  177  A    between atoms: _423  and  _425
REMARK  178  A    between atoms: _425  and  _426
REMARK  179  A    between atoms: _425  and  _428
REMARK  180  A    between atoms: _428  and  _429
REMARK  181  A    between atoms: _432  and  _434
REMARK  182  A    between atoms: _434  and  _435
REMARK  183  A    between atoms: _437  and  _439
REMARK  184  A    between atoms: _439  and  _440
REMARK  185  A    between atoms: _442  and  _444
REMARK  186  A    between atoms: _444  and  _445
REMARK  187  A    between atoms: _444  and  _447
REMARK  188  A    between atoms: _447  and  _448
REMARK  189  A    between atoms: _451  and  _453
REMARK  190  A    between atoms: _453  and  _454
REMARK  191  A    between atoms: _456  and  _458
REMARK  192  A    between atoms: _458  and  _459
REMARK  193  A    between atoms: _461  and  _463
REMARK  194  A    between atoms: _463  and  _464
REMARK  195  A    between atoms: _463  and  _466
REMARK  196  A    between atoms: _466  and  _467
REMARK  197  A    between atoms: _473  and  _475
REMARK  198  A    between atoms: _475  and  _476
REMARK  199  A    between atoms: _475  and  _478
REMARK  200  A    between atoms: _478  and  _479
REMARK  201  A    between atoms: _482  and  _484
REMARK  202  A    between atoms: _484  and  _485
REMARK  203  A    between atoms: _484  and  _487
REMARK  204  A    between atoms: _490  and  _492
REMARK  205  A    between atoms: _492  and  _493
REMARK  206  A    between atoms: _492  and  _495
REMARK  207  A    between atoms: _495  and  _496
REMARK  208  A    between atoms: _499  and  _501
REMARK  209  A    between atoms: _501  and  _502
REMARK  210  A    between atoms: _501  and  _504
REMARK  211  A    between atoms: _504  and  _505
REMARK  212  A    between atoms: _509  and  _510
REMARK  213  A    between atoms: _515  and  _517
REMARK  214  A    between atoms: _517  and  _518
REMARK  215  A    between atoms: _517  and  _520
REMARK  216  A    between atoms: _523  and  _525
REMARK  217  A    between atoms: _525  and  _526
REMARK  218  A    between atoms: _525  and  _528
REMARK  219  A    between atoms: _528  and  _529
REMARK  220  A    between atoms: _534  and  _536
REMARK  221  A    between atoms: _536  and  _537
REMARK  222  A    between atoms: _536  and  _539
REMARK  223  A    between atoms: _539  and  _540
REMARK  224  A    between atoms: _543  and  _545
REMARK  225  A    between atoms: _545  and  _546
REMARK  226  A    between atoms: _545  and  _548
REMARK  227  A    between atoms: _548  and  _549
REMARK  228  A    between atoms: _552  and  _554
REMARK  229  A    between atoms: _554  and  _555
REMARK  230  A    between atoms: _557  and  _559
REMARK  231  A    between atoms: _559  and  _560
REMARK  232  A    between atoms: _559  and  _562
REMARK  233  A    between atoms: _562  and  _563
REMARK  234  A    between atoms: _563  and  _564
REMARK  235  A    between atoms: _564  and  _565
REMARK  236  A    between atoms: _574  and  _576
REMARK  237  A    between atoms: _576  and  _577
REMARK  238  A    between atoms: _576  and  _579
REMARK  239  A    between atoms: _579  and  _580
REMARK                            x       y       z     vdW  Elec       q    Type
REMARK                         _______ _______ _______ _____ _____    ______ ____
ROOT
ATOM      1  CA  LEU A   1      33.958  27.605  10.104  0.00  0.00    +0.133 C 
ENDROOT
BRANCH   1   2
ATOM      2  N   LEU A   1      34.165  26.682  11.226  0.00  0.00    -0.239 NA
ATOM      3  H   LEU A   1      33.414  26.575  11.937  0.00  0.00    +0.142 HD
ENDBRANCH   1   2
BRANCH   1   4
ATOM      4  C   LEU A   1      34.354  28.991  10.562  0.00  0.00    +0.224 C 
ATOM      5  O   LEU A   1      34.109  29.332  11.728  0.00  0.00    -0.287 OA
ENDBRANCH   1   4
BRANCH   1   6
ATOM      6  CB  LEU A   1      32.510  27.525   9.676  0.00  0.00    +0.025 C 
BRANCH   6   7
ATOM      7  CG  LEU A   1      31.975  26.148   9.431  0.00  0.00    +0.002 C 
ATOM      8  CD2 LEU A   1      30.505  26.221   9.038  0.00  0.00    +0.000 C 
ATOM      9  CD1 LEU A   1      32.758  25.405   8.360  0.00  0.00    +0.000 C 
ENDBRANCH   6   7
ENDBRANCH   1   6
TORSDOF 4
REMARK  Name = ../refined-set-2016/1sdu/1sdu_pocket.pdb
REMARK  239 active torsions:
REMARK  status: ('A' for Active; 'I' for Inactive)
REMARK    1  A    between atoms: _1  and  _3
REMARK    2  A    between atoms: _3  and  _4
REMARK    3  A    between atoms: _3  and  _6
REMARK    4  A    between atoms: _6  and  _7
REMARK    5  A    between atoms: _7  and  _8
REMARK    6  A    between atoms: _8  and  _9
REMARK    7  A    between atoms: _18  and  _20
REMARK    8  A    between atoms: _20  and  _21
REMARK    9  A    between atoms: _20  and  _23
REMARK   10  A    between atoms: _23  and  _24
REMARK   11  A    between atoms: _27  and  _29
REMARK   12  A    between atoms: _29  and  _30
REMARK   13  A    between atoms: _29  and  _32
REMARK   14  A    between atoms: _32  and  _33
REMARK   15  A    between atoms: _36  and  _38
REMARK   16  A    between atoms: _38  and  _39
REMARK   17  A    between atoms: _38  and  _41
REMARK   18  A    between atoms: _41  and  _42
REMARK   19  A    between atoms: _45  and  _47
REMARK   20  A    between atoms: _47  and  _48
REMARK   21  A    between atoms: _47  and  _50
REMARK   22  A    between atoms: _50  and  _51
REMARK   23  A    between atoms: _54  and  _56
REMARK   24  A    between atoms: _56  and  _57
REMARK   25  A    between atoms: _56  and  _59
REMARK   26  A    between atoms: _59  and  _60
REMARK   27  A    between atoms: _63  and  _65
REMARK   28  A    between atoms: _65  and  _66
REMARK   29  A    between atoms: _68  and  _70
REMARK   30  A    between atoms: _70  and  _71
REMARK   31  A    between atoms: _74  and  _76
REMARK   32  A    between atoms: _76  and  _77
REMARK   33  A    between atoms: _76  and  _79
REMARK   34  A    between atoms: _79  and  _80
REMARK   35  A    between atoms: _83  and  _85
REMARK   36  A    between atoms: _85  and  _86
REMARK   37  A    between atoms: _85  and  _88
REMARK   38  A    between atoms: _88  and  _89
REMARK   39  A    between atoms: _92  and  _94
REMARK   40  A    between atoms: _94  and  _95
REMARK   41  A    between atoms: _94  and  _97
REMARK   42  A    between atoms: _97  and  _98
REMARK   43  A    between atoms: _101  and  _103
REMARK   44  A    between atoms: _103  and  _104
REMARK   45  A    between atoms: _103  and  _106
REMARK   46  A    between atoms: _109  and  _111
REMARK   47  A    between atoms: _111  and  _112
REMARK   48  A    between atoms: _111  and  _114
REMARK   49  A    between atoms: _115  and  _116
REMARK   50  A    between atoms: _116  and  _117
REMARK   51  A    between atoms: _117  and  _118
REMARK   52  A    between atoms: _122  and  _124
REMARK   53  A    between atoms: _124  and  _125
REMARK   54  A    between atoms: _124  and  _127
REMARK   55  A    between atoms: _127  and  _128
REMARK   56  A    between atoms: _128  and  _129
REMARK   57  A    between atoms: _131  and  _133
REMARK   58  A    between atoms: _133  and  _134
REMARK   59  A    between atoms: _133  and  _136
REMARK   60  A    between atoms: _136  and  _137
REMARK   61  A    between atoms: _140  and  _142
REMARK   62  A    between atoms: _142  and  _143
REMARK   63  A    between atoms: _145  and  _147
REMARK   64  A    between atoms: _147  and  _148
REMARK   65  A    between atoms: _150  and  _152
REMARK   66  A    between atoms: _152  and  _153
REMARK   67  A    between atoms: _152  and  _155
REMARK   68  A    between atoms: _155  and  _156
REMARK   69  A    between atoms: _159  and  _161
REMARK   70  A    between atoms: _161  and  _162
REMARK   71  A    between atoms: _164  and  _166
REMARK   72  A    between atoms: _166  and  _167
REMARK   73  A    between atoms: _169  and  _171
REMARK   74  A    between atoms: _171  and  _172
REMARK   75  A    between atoms: _171  and  _174
REMARK   76  A    between atoms: _174  and  _175
REMARK   77  A    between atoms: _181  and  _183
REMARK   78  A    between atoms: _183  and  _184
REMARK   79  A    between atoms: _183  and  _186
REMARK   80  A    between atoms: _186  and  _187
REMARK   81  A    between atoms: _190  and  _192
REMARK   82  A    between atoms: _192  and  _193
REMARK   83  A    between atoms: _192  and  _195
REMARK   84  A    between atoms: _198  and  _200
REMARK   85  A    between atoms: _200  and  _201
REMARK   86  A    between atoms: _200  and  _203
REMARK   87  A    between atoms: _203  and  _204
REMARK   88  A    between atoms: _207  and  _209
REMARK   89  A    between atoms: _209  and  _210
REMARK   90  A    between atoms: _209  and  _212
REMARK   91  A    between atoms: _212  and  _213
REMARK   92  A    between atoms: _217  and  _218
REMARK   93  A    between atoms: _223  and  _225
REMARK   94  A    between atoms: _225  and  _226
REMARK   95  A    between atoms: _225  and  _228
REMARK   96  A    between atoms: _231  and  _233
REMARK   97  A    between atoms: _233  and  _234
REMARK   98  A    between atoms: _233  and  _236
REMARK   99  A    between atoms: _236  and  _237
REMARK  100  A    between atoms: _242  and  _244
REMARK  101  A    between atoms: _244  and  _245
REMARK  102  A    between atoms: _244  and  _247
REMARK  103  A    between atoms: _247  and  _248
REMARK  104  A    between atoms: _251  and  _253
REMARK  105  A    between atoms: _253  and  _254
REMARK  106  A    between atoms: _253  and  _256
REMARK  107  A    between atoms: _256  and  _257
REMARK  108  A    between atoms: _260  and  _262
REMARK  109  A    between atoms: _262  and  _263
REMARK  110  A    between atoms: _265  and  _267
REMARK  111  A    between atoms: _267  and  _268
REMARK  112  A    between atoms: _267  and  _270
REMARK  113  A    between atoms: _270  and  _271
REMARK  114  A    between atoms: _271  and  _272
REMARK  115  A    between atoms: _272  and  _273
REMARK  116  A    between atoms: _282  and  _284
REMARK  117  A    between atoms: _284  and  _285
REMARK  118  A    between atoms: _284  and  _287
REMARK  119  A    between atoms: _287  and  _288
REMARK  120  A    between atoms: _293  and  _295
REMARK  121  A    between atoms: _295  and  _296
REMARK  122  A    between atoms: _295  and  _298
REMARK  123  A    between atoms: _298  and  _299
REMARK  124  A    between atoms: _299  and  _300
REMARK  125  A    between atoms: _300  and  _301
REMARK  126  A    between atoms: _310  and  _312
REMARK  127  A    between atoms: _312  and  _313
REMARK  128  A    between atoms: _312  and  _315
REMARK  129  A    between atoms: _315  and  _316
REMARK  130  A    between atoms: _319  and  _321
REMARK  131  A    between atoms: _321  and  _322
REMARK  132  A    between atoms: _321  and  _324
REMARK  133  A    between atoms: _324  and  _325
REMARK  134  A    between atoms: _328  and  _330
REMARK  135  A    between atoms: _330  and  _331
REMARK  136  A    between atoms: _330  and  _333
REMARK  137  A    between atoms: _333  and  _334
REMARK  138  A    between atoms: _337  and  _339
REMARK  139  A    between atoms: _339  and  _340
REMARK  140  A    between atoms: _339  and  _342
REMARK  141  A    between atoms: _342  and  _343
REMARK  142  A    between atoms: _346  and  _348
REMARK  143  A    between atoms: _348  and  _349
REMARK  144  A    between atoms: _351  and  _353
REMARK  145  A    between atoms: _353  and  _354
REMARK  146  A    between atoms: _357  and  _359
REMARK  147  A    between atoms: _359  and  _360
REMARK  148  A    between atoms: _359  and  _362
REMARK  149  A    between atoms: _362  and  _363
REMARK  150  A    between atoms: _366  and  _368
REMARK  151  A    between atoms: _368  and  _369
REMARK  152  A    between atoms: _368  and  _371
REMARK  153  A    between atoms: _371  and  _372
REMARK  154  A    between atoms: _375  and  _377
REMARK  155  A    between atoms: _377  and  _378
REMARK  156  A    between atoms: _377  and  _380
REMARK  157  A    between atoms: _380  and  _381
REMARK  158  A    between atoms: _384  and  _386
REMARK  159  A    between atoms: _386  and  _387
REMARK  160  A    between atoms: _386  and  _389
REMARK  161  A    between atoms: _392  and  _394
REMARK  162  A    between atoms: _394  and  _395
REMARK  163  A    between atoms: _394  and  _397
REMARK  164  A    between atoms: _397  and  _398
REMARK  165  A    between atoms: _401  and  _403
REMARK  166  A    between atoms: _403  and  _404
REMARK  167  A    between atoms: _403  and  _406
REMARK  168  A    between atoms: _406  and  _407
REMARK  169  A    between atoms: _407  and  _408
REMARK  170  A    between atoms: _408  and  _409
REMARK  171  A    between atoms: _409  and  _410
REMARK  172  A    between atoms: _414  and  _416
REMARK  173  A    between atoms: _416  and  _417
REMARK  174  A    between atoms: _416  and  _419
REMARK  175  A    between atoms: _419  and  _420
REMARK  176  A    between atoms: _420  and  _421
REMARK  177  A    between atoms: _423  and  _425
REMARK  178  A    between atoms: _425  and  _426
REMARK  179  A    between atoms: _425  and  _428
REMARK  180  A    between atoms: _428  and  _429
REMARK  181  A    between atoms: _432  and  _434
REMARK  182  A    between atoms: _434  and  _435
REMARK  183  A    between atoms: _437  and  _439
REMARK  184  A    between atoms: _439  and  _440
REMARK  185  A    between atoms: _442  and  _444
REMARK  186  A    between atoms: _444  and  _445
REMARK  187  A    between atoms: _444  and  _447
REMARK  188  A    between atoms: _447  and  _448
REMARK  189  A    between atoms: _451  and  _453
REMARK  190  A    between atoms: _453  and  _454
REMARK  191  A    between atoms: _456  and  _458
REMARK  192  A    between atoms: _458  and  _459
REMARK  193  A    between atoms: _461  and  _463
REMARK  194  A    between atoms: _463  and  _464
REMARK  195  A    between atoms: _463  and  _466
REMARK  196  A    between atoms: _466  and  _467
REMARK  197  A    between atoms: _473  and  _475
REMARK  198  A    between atoms: _475  and  _476
REMARK  199  A    between atoms: _475  and  _478
REMARK  200  A    between atoms: _478  and  _479
REMARK  201  A    between atoms: _482  and  _484
REMARK  202  A    between atoms: _484  and  _485
REMARK  203  A    between atoms: _484  and  _487
REMARK  204  A    between atoms: _490  and  _492
REMARK  205  A    between atoms: _492  and  _493
REMARK  206  A    between atoms: _492  and  _495
REMARK  207  A    between atoms: _495  and  _496
REMARK  208  A    between atoms: _499  and  _501
REMARK  209  A    between atoms: _501  and  _502
REMARK  210  A    between atoms: _501  and  _504
REMARK  211  A    between atoms: _504  and  _505
REMARK  212  A    between atoms: _509  and  _510
REMARK  213  A    between atoms: _515  and  _517
REMARK  214  A    between atoms: _517  and  _518
REMARK  215  A    between atoms: _517  and  _520
REMARK  216  A    between atoms: _523  and  _525
REMARK  217  A    between atoms: _525  and  _526
REMARK  218  A    between atoms: _525  and  _528
REMARK  219  A    between atoms: _528  and  _529
REMARK  220  A    between atoms: _534  and  _536
REMARK  221  A    between atoms: _536  and  _537
REMARK  222  A    between atoms: _536  and  _539
REMARK  223  A    between atoms: _539  and  _540
REMARK  224  A    between atoms: _543  and  _545
REMARK  225  A    between atoms: _545  and  _546
REMARK  226  A    between atoms: _545  and  _548
REMARK  227  A    between atoms: _548  and  _549
REMARK  228  A    between atoms: _552  and  _554
REMARK  229  A    between atoms: _554  and  _555
REMARK  230  A    between atoms: _557  and  _559
REMARK  231  A    between atoms: _559  and  _560
REMARK  232  A    between atoms: _559  and  _562
REMARK  233  A    between atoms: _562  and  _563
REMARK  234  A    between atoms: _563  and  _564
REMARK  235  A    between atoms: _564  and  _565
REMARK  236  A    between atoms: _574  and  _576
REMARK  237  A    between atoms: _576  and  _577
REMARK  238  A    between atoms: _576  and  _579
REMARK  239  A    between atoms: _579  and  _580
REMARK                            x       y       z     vdW  Elec       q    Type
REMARK                         _______ _______ _______ _____ _____    ______ ____
ROOT
ATOM      1  C   ILE A   5      29.365  28.735  17.789  0.00  0.00    +0.241 C 
ATOM      2  N   ILE A   6      29.137  28.040  18.921  0.00  0.00    -0.297 N 
ATOM      3  H   ILE A   6      28.668  28.529  19.710  0.00  0.00    +0.150 HD
ATOM      4  O   ILE A   5      30.085  28.315  16.898  0.00  0.00    -0.273 OA
ENDROOT
BRANCH   2   5
ATOM      5  CA  ILE A   6      29.506  26.657  19.100  0.00  0.00    +0.149 C 
BRANCH   5   6
ATOM      6  C   ILE A   6      28.272  25.805  18.813  0.00  0.00    +0.241 C 
ATOM      7  O   ILE A   6      27.274  25.880  19.540  0.00  0.00    -0.273 OA
ATOM      8  N   GLY A   7      28.337  25.039  17.742  0.00  0.00    -0.295 N 
ATOM      9  H   GLY A   7      29.225  25.021  17.200  0.00  0.00    +0.150 HD
BRANCH   8  10
ATOM     10  CA  GLY A   7      27.250  24.234  17.290  0.00  0.00    +0.176 C 
BRANCH  10  11
ATOM     11  C   GLY A   7      27.312  22.798  17.760  0.00  0.00    +0.243 C 
ATOM     12  O   GLY A   7      28.195  22.376  18.516  0.00  0.00    -0.273 OA
ATOM     13  N   ARG A   8      26.354  22.011  17.266  0.00  0.00    -0.297 N 
ATOM     14  H   ARG A   8      25.708  22.373  16.536  0.00  0.00    +0.150 HD
BRANCH  13  15
ATOM     15  CA  ARG A   8      26.214  20.651  17.748  0.00  0.00    +0.149 C 
BRANCH  15  16
ATOM     16  C   ARG A   8      27.450  19.824  17.434  0.00  0.00    +0.241 C 
ATOM     17  O   ARG A   8      27.752  18.886  18.182  0.00  0.00    -0.273 OA
ATOM     18  N   ASN A   9      28.167  20.098  16.352  0.00  0.00    -0.298 N 
ATOM     19  H   ASN A   9      27.930  20.918  15.757  0.00  0.00    +0.150 HD
BRANCH  18  20
ATOM     20  CA  ASN A   9      29.296  19.232  16.005  0.00  0.00    +0.146 C 
BRANCH  20  21
ATOM     21  C   ASN A   9      30.330  19.186  17.124  0.00  0.00    +0.227 C 
ATOM     22  O   ASN A   9      30.963  18.147  17.340  0.00  0.00    -0.286 OA
ENDBRANCH  20  21
BRANCH  20  23
ATOM     23  CB  ASN A   9      29.937  19.676  14.692  0.00  0.00    +0.112 C 
BRANCH  23  24
ATOM     24  CG  ASN A   9      30.665  20.992  14.772  0.00  0.00    +0.222 C 
ATOM     25  OD1 ASN A   9      30.090  21.987  15.228  0.00  0.00    -0.275 OA
ATOM     26  ND2 ASN A   9      31.920  20.985  14.340  0.00  0.00    -0.329 N 
ATOM     27 HD21 ASN A   9      32.486  21.857  14.373  0.00  0.00    +0.145 HD
ATOM     28 HD22 ASN A   9      32.337  20.108  13.969  0.00  0.00    +0.145 HD
ENDBRANCH  23  24
ENDBRANCH  20  23
ENDBRANCH  18  20
ENDBRANCH  15  16
BRANCH  15  29
ATOM     29  CB  ARG A   8      24.971  19.964  17.188  0.00  0.00    +0.033 C 
BRANCH  29  30
ATOM     30  CG  ARG A   8      23.667  20.584  17.637  0.00  0.00    +0.045 C 
BRANCH  30  31
ATOM     31  CD  ARG A   8      22.449  19.786  17.234  0.00  0.00    +0.174 C 
BRANCH  31  32
ATOM     32  NE  ARG A   8      22.309  19.740  15.776  0.00  0.00    -0.265 N 
ATOM     33  HE  ARG A   8      21.856  20.563  15.330  0.00  0.00    +0.259 HD
ATOM     34  CZ  ARG A   8      22.692  18.775  14.968  0.00  0.00    +0.342 C 
ATOM     35  NH2 ARG A   8      23.233  17.638  15.413  0.00  0.00    -0.292 N 
ATOM     36 HH21 ARG A   8      23.365  17.490  16.434  0.00  0.00    +0.255 HD
ATOM     37 HH22 ARG A   8      23.522  16.901  14.739  0.00  0.00    +0.255 HD
ATOM     38  NH1 ARG A   8      22.501  18.956  13.664  0.00  0.00    -0.292 N 
ATOM     39 HH11 ARG A   8      22.064  19.835  13.319  0.00  0.00    +0.255 HD
ATOM     40 HH12 ARG A   8      22.789  18.219  12.989  0.00  0.00    +0.255 HD
ENDBRANCH  31  32
ENDBRANCH  30  31
ENDBRANCH  29  30
ENDBRANCH  15  29
ENDBRANCH  13  15
ENDBRANCH  10  11
ENDBRANCH   8  10
ENDBRANCH   5   6
BRANCH   5  41
ATOM     41  CB  ILE A   6      30.032  26.356  20.514  0.00  0.00    +0.027 C 
ATOM     42  CG2 ILE A   6      30.456  24.898  20.575  0.00  0.00    +0.002 C 
BRANCH  41  43
ATOM     43  CG1 ILE A   6      31.105  27.337  20.954  0.00  0.00    +0.002 C 
ATOM     44  CD1 ILE A   6      32.300  27.381  20.002  0.00  0.00    +0.000 C 
ENDBRANCH  41  43
ENDBRANCH   5  41
ENDBRANCH   2   5
BRANCH   1  45
ATOM     45  CA  ILE A   5      28.714  30.085  17.693  0.00  0.00    +0.149 C 
BRANCH  45  48
ATOM     46  C   ASN A   4      29.850  32.190  18.207  0.00  0.00    +0.241 C 
ATOM     47  O   ASN A   4      29.261  32.359  19.274  0.00  0.00    -0.273 OA
ATOM     48  N   ILE A   5      29.700  31.135  17.453  0.00  0.00    -0.297 N 
ATOM     49  H   ILE A   5      30.324  31.036  16.627  0.00  0.00    +0.150 HD
BRANCH  46  50
ATOM     50  CA  ASN A   4      30.829  33.273  17.738  0.00  0.00    +0.158 C 
BRANCH  50  52
ATOM     51  C   VAL A   3      29.202  34.879  16.928  0.00  0.00    +0.241 C 
ATOM     52  N   ASN A   4      30.161  34.564  17.809  0.00  0.00    -0.297 N 
ATOM     53  H   ASN A   4      30.429  35.245  18.547  0.00  0.00    +0.150 HD
ATOM     54  O   VAL A   3      28.930  34.126  15.989  0.00  0.00    -0.273 OA
BRANCH  51  55
ATOM     55  CA  VAL A   3      28.438  36.177  17.159  0.00  0.00    +0.149 C 
BRANCH  55  58
ATOM     56  C   PRO A   2      27.822  37.860  15.473  0.00  0.00    +0.241 C 
ATOM     57  O   PRO A   2      28.050  38.848  16.208  0.00  0.00    -0.273 OA
ATOM     58  N   VAL A   3      27.960  36.597  15.849  0.00  0.00    -0.297 N 
ATOM     59  H   VAL A   3      27.710  35.856  15.163  0.00  0.00    +0.150 HD
BRANCH  56  63
ATOM     60  C   THR A   1      28.725  36.738  12.693  0.00  0.00    +0.244 C 
ATOM     61  O   THR A   1      29.685  37.399  13.130  0.00  0.00    -0.273 OA
ATOM     62  N   PRO A   2      27.507  37.020  13.111  0.00  0.00    -0.272 N 
ATOM     63  CA  PRO A   2      27.294  38.111  14.078  0.00  0.00    +0.152 C 
ATOM     64  CB  PRO A   2      25.770  38.199  14.153  0.00  0.00    +0.031 C 
ATOM     65  CG  PRO A   2      25.240  37.507  12.950  0.00  0.00    +0.024 C 
ATOM     66  CD  PRO A   2      26.230  36.459  12.613  0.00  0.00    +0.094 C 
BRANCH  60  67
ATOM     67  CA  THR A   1      28.973  35.625  11.704  0.00  0.00    +0.172 C 
BRANCH  67  68
ATOM     68  CB  THR A   1      29.219  34.268  12.424  0.00  0.00    +0.135 C 
ATOM     69  CG2 THR A   1      30.533  34.234  13.218  0.00  0.00    +0.034 C 
BRANCH  68  70
ATOM     70  OG1 THR A   1      28.136  34.071  13.321  0.00  0.00    -0.383 OA
ATOM     71  HG1 THR A   1      28.111  34.814  13.974  0.00  0.00    +0.210 HD
ENDBRANCH  68  70
ENDBRANCH  67  68
BRANCH  67  72
ATOM     72  N   THR A   1      30.089  35.920  10.815  0.00  0.00    -0.236 NA
ATOM     73  H   THR A   1      31.006  35.457  10.979  0.00  0.00    +0.142 HD
ENDBRANCH  67  72
ENDBRANCH  60  67
ENDBRANCH  56  63
ENDBRANCH  55  58
BRANCH  55  74
ATOM     74  CB  VAL A   3      27.297  35.962  18.154  0.00  0.00    +0.027 C 
ATOM     75  CG2 VAL A   3      26.399  37.195  18.350  0.00  0.00    +0.002 C 
ATOM     76  CG1 VAL A   3      26.387  34.856  17.723  0.00  0.00    +0.002 C 
ENDBRANCH  55  74
ENDBRANCH  51  55
ENDBRANCH  50  52
BRANCH  50  77
ATOM     77  CB  ASN A   4      32.080  33.237  18.620  0.00  0.00    +0.114 C 
BRANCH  77  78
ATOM     78  CG  ASN A   4      33.104  34.270  18.164  0.00  0.00    +0.222 C 
ATOM     79  ND2 ASN A   4      33.747  34.901  19.087  0.00  0.00    -0.329 N 
ATOM     80 HD21 ASN A   4      33.547  34.703  20.088  0.00  0.00    +0.145 HD
ATOM     81 HD22 ASN A   4      34.465  35.608  18.830  0.00  0.00    +0.145 HD
ATOM     82  OD1 ASN A   4      33.299  34.464  16.973  0.00  0.00    -0.275 OA
ENDBRANCH  77  78
ENDBRANCH  50  77
ENDBRANCH  46  50
ENDBRANCH  45  48
BRANCH  45  83
ATOM     83  CB  ILE A   5      27.735  30.039  16.499  0.00  0.00    +0.027 C 
ATOM     84  CG2 ILE A   5      26.877  28.790  16.526  0.00  0.00    +0.002 C 
BRANCH  83  85
ATOM     85  CG1 ILE A   5      26.905  31.332  16.387  0.00  0.00    +0.002 C 
ATOM     86  CD1 ILE A   5      26.164  31.469  15.102  0.00  0.00    +0.000 C 
ENDBRANCH  83  85
ENDBRANCH  45  83
ENDBRANCH   1  45
TORSDOF 32
REMARK  Name = ../refined-set-2016/1sdu/1sdu_pocket.pdb
REMARK  239 active torsions:
REMARK  status: ('A' for Active; 'I' for Inactive)
REMARK    1  A    between atoms: _1  and  _3
REMARK    2  A    between atoms: _3  and  _4
REMARK    3  A    between atoms: _3  and  _6
REMARK    4  A    between atoms: _6  and  _7
REMARK    5  A    between atoms: _7  and  _8
REMARK    6  A    between atoms: _8  and  _9
REMARK    7  A    between atoms: _18  and  _20
REMARK    8  A    between atoms: _20  and  _21
REMARK    9  A    between atoms: _20  and  _23
REMARK   10  A    between atoms: _23  and  _24
REMARK   11  A    between atoms: _27  and  _29
REMARK   12  A    between atoms: _29  and  _30
REMARK   13  A    between atoms: _29  and  _32
REMARK   14  A    between atoms: _32  and  _33
REMARK   15  A    between atoms: _36  and  _38
REMARK   16  A    between atoms: _38  and  _39
REMARK   17  A    between atoms: _38  and  _41
REMARK   18  A    between atoms: _41  and  _42
REMARK   19  A    between atoms: _45  and  _47
REMARK   20  A    between atoms: _47  and  _48
REMARK   21  A    between atoms: _47  and  _50
REMARK   22  A    between atoms: _50  and  _51
REMARK   23  A    between atoms: _54  and  _56
REMARK   24  A    between atoms: _56  and  _57
REMARK   25  A    between atoms: _56  and  _59
REMARK   26  A    between atoms: _59  and  _60
REMARK   27  A    between atoms: _63  and  _65
REMARK   28  A    between atoms: _65  and  _66
REMARK   29  A    between atoms: _68  and  _70
REMARK   30  A    between atoms: _70  and  _71
REMARK   31  A    between atoms: _74  and  _76
REMARK   32  A    between atoms: _76  and  _77
REMARK   33  A    between atoms: _76  and  _79
REMARK   34  A    between atoms: _79  and  _80
REMARK   35  A    between atoms: _83  and  _85
REMARK   36  A    between atoms: _85  and  _86
REMARK   37  A    between atoms: _85  and  _88
REMARK   38  A    between atoms: _88  and  _89
REMARK   39  A    between atoms: _92  and  _94
REMARK   40  A    between atoms: _94  and  _95
REMARK   41  A    between atoms: _94  and  _97
REMARK   42  A    between atoms: _97  and  _98
REMARK   43  A    between atoms: _101  and  _103
REMARK   44  A    between atoms: _103  and  _104
REMARK   45  A    between atoms: _103  and  _106
REMARK   46  A    between atoms: _109  and  _111
REMARK   47  A    between atoms: _111  and  _112
REMARK   48  A    between atoms: _111  and  _114
REMARK   49  A    between atoms: _115  and  _116
REMARK   50  A    between atoms: _116  and  _117
REMARK   51  A    between atoms: _117  and  _118
REMARK   52  A    between atoms: _122  and  _124
REMARK   53  A    between atoms: _124  and  _125
REMARK   54  A    between atoms: _124  and  _127
REMARK   55  A    between atoms: _127  and  _128
REMARK   56  A    between atoms: _128  and  _129
REMARK   57  A    between atoms: _131  and  _133
REMARK   58  A    between atoms: _133  and  _134
REMARK   59  A    between atoms: _133  and  _136
REMARK   60  A    between atoms: _136  and  _137
REMARK   61  A    between atoms: _140  and  _142
REMARK   62  A    between atoms: _142  and  _143
REMARK   63  A    between atoms: _145  and  _147
REMARK   64  A    between atoms: _147  and  _148
REMARK   65  A    between atoms: _150  and  _152
REMARK   66  A    between atoms: _152  and  _153
REMARK   67  A    between atoms: _152  and  _155
REMARK   68  A    between atoms: _155  and  _156
REMARK   69  A    between atoms: _159  and  _161
REMARK   70  A    between atoms: _161  and  _162
REMARK   71  A    between atoms: _164  and  _166
REMARK   72  A    between atoms: _166  and  _167
REMARK   73  A    between atoms: _169  and  _171
REMARK   74  A    between atoms: _171  and  _172
REMARK   75  A    between atoms: _171  and  _174
REMARK   76  A    between atoms: _174  and  _175
REMARK   77  A    between atoms: _181  and  _183
REMARK   78  A    between atoms: _183  and  _184
REMARK   79  A    between atoms: _183  and  _186
REMARK   80  A    between atoms: _186  and  _187
REMARK   81  A    between atoms: _190  and  _192
REMARK   82  A    between atoms: _192  and  _193
REMARK   83  A    between atoms: _192  and  _195
REMARK   84  A    between atoms: _198  and  _200
REMARK   85  A    between atoms: _200  and  _201
REMARK   86  A    between atoms: _200  and  _203
REMARK   87  A    between atoms: _203  and  _204
REMARK   88  A    between atoms: _207  and  _209
REMARK   89  A    between atoms: _209  and  _210
REMARK   90  A    between atoms: _209  and  _212
REMARK   91  A    between atoms: _212  and  _213
REMARK   92  A    between atoms: _217  and  _218
REMARK   93  A    between atoms: _223  and  _225
REMARK   94  A    between atoms: _225  and  _226
REMARK   95  A    between atoms: _225  and  _228
REMARK   96  A    between atoms: _231  and  _233
REMARK   97  A    between atoms: _233  and  _234
REMARK   98  A    between atoms: _233  and  _236
REMARK   99  A    between atoms: _236  and  _237
REMARK  100  A    between atoms: _242  and  _244
REMARK  101  A    between atoms: _244  and  _245
REMARK  102  A    between atoms: _244  and  _247
REMARK  103  A    between atoms: _247  and  _248
REMARK  104  A    between atoms: _251  and  _253
REMARK  105  A    between atoms: _253  and  _254
REMARK  106  A    between atoms: _253  and  _256
REMARK  107  A    between atoms: _256  and  _257
REMARK  108  A    between atoms: _260  and  _262
REMARK  109  A    between atoms: _262  and  _263
REMARK  110  A    between atoms: _265  and  _267
REMARK  111  A    between atoms: _267  and  _268
REMARK  112  A    between atoms: _267  and  _270
REMARK  113  A    between atoms: _270  and  _271
REMARK  114  A    between atoms: _271  and  _272
REMARK  115  A    between atoms: _272  and  _273
REMARK  116  A    between atoms: _282  and  _284
REMARK  117  A    between atoms: _284  and  _285
REMARK  118  A    between atoms: _284  and  _287
REMARK  119  A    between atoms: _287  and  _288
REMARK  120  A    between atoms: _293  and  _295
REMARK  121  A    between atoms: _295  and  _296
REMARK  122  A    between atoms: _295  and  _298
REMARK  123  A    between atoms: _298  and  _299
REMARK  124  A    between atoms: _299  and  _300
REMARK  125  A    between atoms: _300  and  _301
REMARK  126  A    between atoms: _310  and  _312
REMARK  127  A    between atoms: _312  and  _313
REMARK  128  A    between atoms: _312  and  _315
REMARK  129  A    between atoms: _315  and  _316
REMARK  130  A    between atoms: _319  and  _321
REMARK  131  A    between atoms: _321  and  _322
REMARK  132  A    between atoms: _321  and  _324
REMARK  133  A    between atoms: _324  and  _325
REMARK  134  A    between atoms: _328  and  _330
REMARK  135  A    between atoms: _330  and  _331
REMARK  136  A    between atoms: _330  and  _333
REMARK  137  A    between atoms: _333  and  _334
REMARK  138  A    between atoms: _337  and  _339
REMARK  139  A    between atoms: _339  and  _340
REMARK  140  A    between atoms: _339  and  _342
REMARK  141  A    between atoms: _342  and  _343
REMARK  142  A    between atoms: _346  and  _348
REMARK  143  A    between atoms: _348  and  _349
REMARK  144  A    between atoms: _351  and  _353
REMARK  145  A    between atoms: _353  and  _354
REMARK  146  A    between atoms: _357  and  _359
REMARK  147  A    between atoms: _359  and  _360
REMARK  148  A    between atoms: _359  and  _362
REMARK  149  A    between atoms: _362  and  _363
REMARK  150  A    between atoms: _366  and  _368
REMARK  151  A    between atoms: _368  and  _369
REMARK  152  A    between atoms: _368  and  _371
REMARK  153  A    between atoms: _371  and  _372
REMARK  154  A    between atoms: _375  and  _377
REMARK  155  A    between atoms: _377  and  _378
REMARK  156  A    between atoms: _377  and  _380
REMARK  157  A    between atoms: _380  and  _381
REMARK  158  A    between atoms: _384  and  _386
REMARK  159  A    between atoms: _386  and  _387
REMARK  160  A    between atoms: _386  and  _389
REMARK  161  A    between atoms: _392  and  _394
REMARK  162  A    between atoms: _394  and  _395
REMARK  163  A    between atoms: _394  and  _397
REMARK  164  A    between atoms: _397  and  _398
REMARK  165  A    between atoms: _401  and  _403
REMARK  166  A    between atoms: _403  and  _404
REMARK  167  A    between atoms: _403  and  _406
REMARK  168  A    between atoms: _406  and  _407
REMARK  169  A    between atoms: _407  and  _408
REMARK  170  A    between atoms: _408  and  _409
REMARK  171  A    between atoms: _409  and  _410
REMARK  172  A    between atoms: _414  and  _416
REMARK  173  A    between atoms: _416  and  _417
REMARK  174  A    between atoms: _416  and  _419
REMARK  175  A    between atoms: _419  and  _420
REMARK  176  A    between atoms: _420  and  _421
REMARK  177  A    between atoms: _423  and  _425
REMARK  178  A    between atoms: _425  and  _426
REMARK  179  A    between atoms: _425  and  _428
REMARK  180  A    between atoms: _428  and  _429
REMARK  181  A    between atoms: _432  and  _434
REMARK  182  A    between atoms: _434  and  _435
REMARK  183  A    between atoms: _437  and  _439
REMARK  184  A    between atoms: _439  and  _440
REMARK  185  A    between atoms: _442  and  _444
REMARK  186  A    between atoms: _444  and  _445
REMARK  187  A    between atoms: _444  and  _447
REMARK  188  A    between atoms: _447  and  _448
REMARK  189  A    between atoms: _451  and  _453
REMARK  190  A    between atoms: _453  and  _454
REMARK  191  A    between atoms: _456  and  _458
REMARK  192  A    between atoms: _458  and  _459
REMARK  193  A    between atoms: _461  and  _463
REMARK  194  A    between atoms: _463  and  _464
REMARK  195  A    between atoms: _463  and  _466
REMARK  196  A    between atoms: _466  and  _467
REMARK  197  A    between atoms: _473  and  _475
REMARK  198  A    between atoms: _475  and  _476
REMARK  199  A    between atoms: _475  and  _478
REMARK  200  A    between atoms: _478  and  _479
REMARK  201  A    between atoms: _482  and  _484
REMARK  202  A    between atoms: _484  and  _485
REMARK  203  A    between atoms: _484  and  _487
REMARK  204  A    between atoms: _490  and  _492
REMARK  205  A    between atoms: _492  and  _493
REMARK  206  A    between atoms: _492  and  _495
REMARK  207  A    between atoms: _495  and  _496
REMARK  208  A    between atoms: _499  and  _501
REMARK  209  A    between atoms: _501  and  _502
REMARK  210  A    between atoms: _501  and  _504
REMARK  211  A    between atoms: _504  and  _505
REMARK  212  A    between atoms: _509  and  _510
REMARK  213  A    between atoms: _515  and  _517
REMARK  214  A    between atoms: _517  and  _518
REMARK  215  A    between atoms: _517  and  _520
REMARK  216  A    between atoms: _523  and  _525
REMARK  217  A    between atoms: _525  and  _526
REMARK  218  A    between atoms: _525  and  _528
REMARK  219  A    between atoms: _528  and  _529
REMARK  220  A    between atoms: _534  and  _536
REMARK  221  A    between atoms: _536  and  _537
REMARK  222  A    between atoms: _536  and  _539
REMARK  223  A    between atoms: _539  and  _540
REMARK  224  A    between atoms: _543  and  _545
REMARK  225  A    between atoms: _545  and  _546
REMARK  226  A    between atoms: _545  and  _548
REMARK  227  A    between atoms: _548  and  _549
REMARK  228  A    between atoms: _552  and  _554
REMARK  229  A    between atoms: _554  and  _555
REMARK  230  A    between atoms: _557  and  _559
REMARK  231  A    between atoms: _559  and  _560
REMARK  232  A    between atoms: _559  and  _562
REMARK  233  A    between atoms: _562  and  _563
REMARK  234  A    between atoms: _563  and  _564
REMARK  235  A    between atoms: _564  and  _565
REMARK  236  A    between atoms: _574  and  _576
REMARK  237  A    between atoms: _576  and  _577
REMARK  238  A    between atoms: _576  and  _579
REMARK  239  A    between atoms: _579  and  _580
REMARK                            x       y       z     vdW  Elec       q    Type
REMARK                         _______ _______ _______ _____ _____    ______ ____
ROOT
ATOM      1  O   HOH     1       9.693  35.117  20.876  0.00  0.00    +0.000 OA
ENDROOT
TORSDOF 0
REMARK  Name = ../refined-set-2016/1sdu/1sdu_pocket.pdb
REMARK  239 active torsions:
REMARK  status: ('A' for Active; 'I' for Inactive)
REMARK    1  A    between atoms: _1  and  _3
REMARK    2  A    between atoms: _3  and  _4
REMARK    3  A    between atoms: _3  and  _6
REMARK    4  A    between atoms: _6  and  _7
REMARK    5  A    between atoms: _7  and  _8
REMARK    6  A    between atoms: _8  and  _9
REMARK    7  A    between atoms: _18  and  _20
REMARK    8  A    between atoms: _20  and  _21
REMARK    9  A    between atoms: _20  and  _23
REMARK   10  A    between atoms: _23  and  _24
REMARK   11  A    between atoms: _27  and  _29
REMARK   12  A    between atoms: _29  and  _30
REMARK   13  A    between atoms: _29  and  _32
REMARK   14  A    between atoms: _32  and  _33
REMARK   15  A    between atoms: _36  and  _38
REMARK   16  A    between atoms: _38  and  _39
REMARK   17  A    between atoms: _38  and  _41
REMARK   18  A    between atoms: _41  and  _42
REMARK   19  A    between atoms: _45  and  _47
REMARK   20  A    between atoms: _47  and  _48
REMARK   21  A    between atoms: _47  and  _50
REMARK   22  A    between atoms: _50  and  _51
REMARK   23  A    between atoms: _54  and  _56
REMARK   24  A    between atoms: _56  and  _57
REMARK   25  A    between atoms: _56  and  _59
REMARK   26  A    between atoms: _59  and  _60
REMARK   27  A    between atoms: _63  and  _65
REMARK   28  A    between atoms: _65  and  _66
REMARK   29  A    between atoms: _68  and  _70
REMARK   30  A    between atoms: _70  and  _71
REMARK   31  A    between atoms: _74  and  _76
REMARK   32  A    between atoms: _76  and  _77
REMARK   33  A    between atoms: _76  and  _79
REMARK   34  A    between atoms: _79  and  _80
REMARK   35  A    between atoms: _83  and  _85
REMARK   36  A    between atoms: _85  and  _86
REMARK   37  A    between atoms: _85  and  _88
REMARK   38  A    between atoms: _88  and  _89
REMARK   39  A    between atoms: _92  and  _94
REMARK   40  A    between atoms: _94  and  _95
REMARK   41  A    between atoms: _94  and  _97
REMARK   42  A    between atoms: _97  and  _98
REMARK   43  A    between atoms: _101  and  _103
REMARK   44  A    between atoms: _103  and  _104
REMARK   45  A    between atoms: _103  and  _106
REMARK   46  A    between atoms: _109  and  _111
REMARK   47  A    between atoms: _111  and  _112
REMARK   48  A    between atoms: _111  and  _114
REMARK   49  A    between atoms: _115  and  _116
REMARK   50  A    between atoms: _116  and  _117
REMARK   51  A    between atoms: _117  and  _118
REMARK   52  A    between atoms: _122  and  _124
REMARK   53  A    between atoms: _124  and  _125
REMARK   54  A    between atoms: _124  and  _127
REMARK   55  A    between atoms: _127  and  _128
REMARK   56  A    between atoms: _128  and  _129
REMARK   57  A    between atoms: _131  and  _133
REMARK   58  A    between atoms: _133  and  _134
REMARK   59  A    between atoms: _133  and  _136
REMARK   60  A    between atoms: _136  and  _137
REMARK   61  A    between atoms: _140  and  _142
REMARK   62  A    between atoms: _142  and  _143
REMARK   63  A    between atoms: _145  and  _147
REMARK   64  A    between atoms: _147  and  _148
REMARK   65  A    between atoms: _150  and  _152
REMARK   66  A    between atoms: _152  and  _153
REMARK   67  A    between atoms: _152  and  _155
REMARK   68  A    between atoms: _155  and  _156
REMARK   69  A    between atoms: _159  and  _161
REMARK   70  A    between atoms: _161  and  _162
REMARK   71  A    between atoms: _164  and  _166
REMARK   72  A    between atoms: _166  and  _167
REMARK   73  A    between atoms: _169  and  _171
REMARK   74  A    between atoms: _171  and  _172
REMARK   75  A    between atoms: _171  and  _174
REMARK   76  A    between atoms: _174  and  _175
REMARK   77  A    between atoms: _181  and  _183
REMARK   78  A    between atoms: _183  and  _184
REMARK   79  A    between atoms: _183  and  _186
REMARK   80  A    between atoms: _186  and  _187
REMARK   81  A    between atoms: _190  and  _192
REMARK   82  A    between atoms: _192  and  _193
REMARK   83  A    between atoms: _192  and  _195
REMARK   84  A    between atoms: _198  and  _200
REMARK   85  A    between atoms: _200  and  _201
REMARK   86  A    between atoms: _200  and  _203
REMARK   87  A    between atoms: _203  and  _204
REMARK   88  A    between atoms: _207  and  _209
REMARK   89  A    between atoms: _209  and  _210
REMARK   90  A    between atoms: _209  and  _212
REMARK   91  A    between atoms: _212  and  _213
REMARK   92  A    between atoms: _217  and  _218
REMARK   93  A    between atoms: _223  and  _225
REMARK   94  A    between atoms: _225  and  _226
REMARK   95  A    between atoms: _225  and  _228
REMARK   96  A    between atoms: _231  and  _233
REMARK   97  A    between atoms: _233  and  _234
REMARK   98  A    between atoms: _233  and  _236
REMARK   99  A    between atoms: _236  and  _237
REMARK  100  A    between atoms: _242  and  _244
REMARK  101  A    between atoms: _244  and  _245
REMARK  102  A    between atoms: _244  and  _247
REMARK  103  A    between atoms: _247  and  _248
REMARK  104  A    between atoms: _251  and  _253
REMARK  105  A    between atoms: _253  and  _254
REMARK  106  A    between atoms: _253  and  _256
REMARK  107  A    between atoms: _256  and  _257
REMARK  108  A    between atoms: _260  and  _262
REMARK  109  A    between atoms: _262  and  _263
REMARK  110  A    between atoms: _265  and  _267
REMARK  111  A    between atoms: _267  and  _268
REMARK  112  A    between atoms: _267  and  _270
REMARK  113  A    between atoms: _270  and  _271
REMARK  114  A    between atoms: _271  and  _272
REMARK  115  A    between atoms: _272  and  _273
REMARK  116  A    between atoms: _282  and  _284
REMARK  117  A    between atoms: _284  and  _285
REMARK  118  A    between atoms: _284  and  _287
REMARK  119  A    between atoms: _287  and  _288
REMARK  120  A    between atoms: _293  and  _295
REMARK  121  A    between atoms: _295  and  _296
REMARK  122  A    between atoms: _295  and  _298
REMARK  123  A    between atoms: _298  and  _299
REMARK  124  A    between atoms: _299  and  _300
REMARK  125  A    between atoms: _300  and  _301
REMARK  126  A    between atoms: _310  and  _312
REMARK  127  A    between atoms: _312  and  _313
REMARK  128  A    between atoms: _312  and  _315
REMARK  129  A    between atoms: _315  and  _316
REMARK  130  A    between atoms: _319  and  _321
REMARK  131  A    between atoms: _321  and  _322
REMARK  132  A    between atoms: _321  and  _324
REMARK  133  A    between atoms: _324  and  _325
REMARK  134  A    between atoms: _328  and  _330
REMARK  135  A    between atoms: _330  and  _331
REMARK  136  A    between atoms: _330  and  _333
REMARK  137  A    between atoms: _333  and  _334
REMARK  138  A    between atoms: _337  and  _339
REMARK  139  A    between atoms: _339  and  _340
REMARK  140  A    between atoms: _339  and  _342
REMARK  141  A    between atoms: _342  and  _343
REMARK  142  A    between atoms: _346  and  _348
REMARK  143  A    between atoms: _348  and  _349
REMARK  144  A    between atoms: _351  and  _353
REMARK  145  A    between atoms: _353  and  _354
REMARK  146  A    between atoms: _357  and  _359
REMARK  147  A    between atoms: _359  and  _360
REMARK  148  A    between atoms: _359  and  _362
REMARK  149  A    between atoms: _362  and  _363
REMARK  150  A    between atoms: _366  and  _368
REMARK  151  A    between atoms: _368  and  _369
REMARK  152  A    between atoms: _368  and  _371
REMARK  153  A    between atoms: _371  and  _372
REMARK  154  A    between atoms: _375  and  _377
REMARK  155  A    between atoms: _377  and  _378
REMARK  156  A    between atoms: _377  and  _380
REMARK  157  A    between atoms: _380  and  _381
REMARK  158  A    between atoms: _384  and  _386
REMARK  159  A    between atoms: _386  and  _387
REMARK  160  A    between atoms: _386  and  _389
REMARK  161  A    between atoms: _392  and  _394
REMARK  162  A    between atoms: _394  and  _395
REMARK  163  A    between atoms: _394  and  _397
REMARK  164  A    between atoms: _397  and  _398
REMARK  165  A    between atoms: _401  and  _403
REMARK  166  A    between atoms: _403  and  _404
REMARK  167  A    between atoms: _403  and  _406
REMARK  168  A    between atoms: _406  and  _407
REMARK  169  A    between atoms: _407  and  _408
REMARK  170  A    between atoms: _408  and  _409
REMARK  171  A    between atoms: _409  and  _410
REMARK  172  A    between atoms: _414  and  _416
REMARK  173  A    between atoms: _416  and  _417
REMARK  174  A    between atoms: _416  and  _419
REMARK  175  A    between atoms: _419  and  _420
REMARK  176  A    between atoms: _420  and  _421
REMARK  177  A    between atoms: _423  and  _425
REMARK  178  A    between atoms: _425  and  _426
REMARK  179  A    between atoms: _425  and  _428
REMARK  180  A    between atoms: _428  and  _429
REMARK  181  A    between atoms: _432  and  _434
REMARK  182  A    between atoms: _434  and  _435
REMARK  183  A    between atoms: _437  and  _439
REMARK  184  A    between atoms: _439  and  _440
REMARK  185  A    between atoms: _442  and  _444
REMARK  186  A    between atoms: _444  and  _445
REMARK  187  A    between atoms: _444  and  _447
REMARK  188  A    between atoms: _447  and  _448
REMARK  189  A    between atoms: _451  and  _453
REMARK  190  A    between atoms: _453  and  _454
REMARK  191  A    between atoms: _456  and  _458
REMARK  192  A    between atoms: _458  and  _459
REMARK  193  A    between atoms: _461  and  _463
REMARK  194  A    between atoms: _463  and  _464
REMARK  195  A    between atoms: _463  and  _466
REMARK  196  A    between atoms: _466  and  _467
REMARK  197  A    between atoms: _473  and  _475
REMARK  198  A    between atoms: _475  and  _476
REMARK  199  A    between atoms: _475  and  _478
REMARK  200  A    between atoms: _478  and  _479
REMARK  201  A    between atoms: _482  and  _484
REMARK  202  A    between atoms: _484  and  _485
REMARK  203  A    between atoms: _484  and  _487
REMARK  204  A    between atoms: _490  and  _492
REMARK  205  A    between atoms: _492  and  _493
REMARK  206  A    between atoms: _492  and  _495
REMARK  207  A    between atoms: _495  and  _496
REMARK  208  A    between atoms: _499  and  _501
REMARK  209  A    between atoms: _501  and  _502
REMARK  210  A    between atoms: _501  and  _504
REMARK  211  A    between atoms: _504  and  _505
REMARK  212  A    between atoms: _509  and  _510
REMARK  213  A    between atoms: _515  and  _517
REMARK  214  A    between atoms: _517  and  _518
REMARK  215  A    between atoms: _517  and  _520
REMARK  216  A    between atoms: _523  and  _525
REMARK  217  A    between atoms: _525  and  _526
REMARK  218  A    between atoms: _525  and  _528
REMARK  219  A    between atoms: _528  and  _529
REMARK  220  A    between atoms: _534  and  _536
REMARK  221  A    between atoms: _536  and  _537
REMARK  222  A    between atoms: _536  and  _539
REMARK  223  A    between atoms: _539  and  _540
REMARK  224  A    between atoms: _543  and  _545
REMARK  225  A    between atoms: _545  and  _546
REMARK  226  A    between atoms: _545  and  _548
REMARK  227  A    between atoms: _548  and  _549
REMARK  228  A    between atoms: _552  and  _554
REMARK  229  A    between atoms: _554  and  _555
REMARK  230  A    between atoms: _557  and  _559
REMARK  231  A    between atoms: _559  and  _560
REMARK  232  A    between atoms: _559  and  _562
REMARK  233  A    between atoms: _562  and  _563
REMARK  234  A    between atoms: _563  and  _564
REMARK  235  A    between atoms: _564  and  _565
REMARK  236  A    between atoms: _574  and  _576
REMARK  237  A    between atoms: _576  and  _577
REMARK  238  A    between atoms: _576  and  _579
REMARK  239  A    between atoms: _579  and  _580
REMARK                            x       y       z     vdW  Elec       q    Type
REMARK                         _______ _______ _______ _____ _____    ______ ____
ROOT
ATOM      1  O   HOH     1      18.836  35.161  18.797  0.00  0.00    +0.000 OA
ENDROOT
TORSDOF 0
REMARK  Name = ../refined-set-2016/1sdu/1sdu_pocket.pdb
REMARK  239 active torsions:
REMARK  status: ('A' for Active; 'I' for Inactive)
REMARK    1  A    between atoms: _1  and  _3
REMARK    2  A    between atoms: _3  and  _4
REMARK    3  A    between atoms: _3  and  _6
REMARK    4  A    between atoms: _6  and  _7
REMARK    5  A    between atoms: _7  and  _8
REMARK    6  A    between atoms: _8  and  _9
REMARK    7  A    between atoms: _18  and  _20
REMARK    8  A    between atoms: _20  and  _21
REMARK    9  A    between atoms: _20  and  _23
REMARK   10  A    between atoms: _23  and  _24
REMARK   11  A    between atoms: _27  and  _29
REMARK   12  A    between atoms: _29  and  _30
REMARK   13  A    between atoms: _29  and  _32
REMARK   14  A    between atoms: _32  and  _33
REMARK   15  A    between atoms: _36  and  _38
REMARK   16  A    between atoms: _38  and  _39
REMARK   17  A    between atoms: _38  and  _41
REMARK   18  A    between atoms: _41  and  _42
REMARK   19  A    between atoms: _45  and  _47
REMARK   20  A    between atoms: _47  and  _48
REMARK   21  A    between atoms: _47  and  _50
REMARK   22  A    between atoms: _50  and  _51
REMARK   23  A    between atoms: _54  and  _56
REMARK   24  A    between atoms: _56  and  _57
REMARK   25  A    between atoms: _56  and  _59
REMARK   26  A    between atoms: _59  and  _60
REMARK   27  A    between atoms: _63  and  _65
REMARK   28  A    between atoms: _65  and  _66
REMARK   29  A    between atoms: _68  and  _70
REMARK   30  A    between atoms: _70  and  _71
REMARK   31  A    between atoms: _74  and  _76
REMARK   32  A    between atoms: _76  and  _77
REMARK   33  A    between atoms: _76  and  _79
REMARK   34  A    between atoms: _79  and  _80
REMARK   35  A    between atoms: _83  and  _85
REMARK   36  A    between atoms: _85  and  _86
REMARK   37  A    between atoms: _85  and  _88
REMARK   38  A    between atoms: _88  and  _89
REMARK   39  A    between atoms: _92  and  _94
REMARK   40  A    between atoms: _94  and  _95
REMARK   41  A    between atoms: _94  and  _97
REMARK   42  A    between atoms: _97  and  _98
REMARK   43  A    between atoms: _101  and  _103
REMARK   44  A    between atoms: _103  and  _104
REMARK   45  A    between atoms: _103  and  _106
REMARK   46  A    between atoms: _109  and  _111
REMARK   47  A    between atoms: _111  and  _112
REMARK   48  A    between atoms: _111  and  _114
REMARK   49  A    between atoms: _115  and  _116
REMARK   50  A    between atoms: _116  and  _117
REMARK   51  A    between atoms: _117  and  _118
REMARK   52  A    between atoms: _122  and  _124
REMARK   53  A    between atoms: _124  and  _125
REMARK   54  A    between atoms: _124  and  _127
REMARK   55  A    between atoms: _127  and  _128
REMARK   56  A    between atoms: _128  and  _129
REMARK   57  A    between atoms: _131  and  _133
REMARK   58  A    between atoms: _133  and  _134
REMARK   59  A    between atoms: _133  and  _136
REMARK   60  A    between atoms: _136  and  _137
REMARK   61  A    between atoms: _140  and  _142
REMARK   62  A    between atoms: _142  and  _143
REMARK   63  A    between atoms: _145  and  _147
REMARK   64  A    between atoms: _147  and  _148
REMARK   65  A    between atoms: _150  and  _152
REMARK   66  A    between atoms: _152  and  _153
REMARK   67  A    between atoms: _152  and  _155
REMARK   68  A    between atoms: _155  and  _156
REMARK   69  A    between atoms: _159  and  _161
REMARK   70  A    between atoms: _161  and  _162
REMARK   71  A    between atoms: _164  and  _166
REMARK   72  A    between atoms: _166  and  _167
REMARK   73  A    between atoms: _169  and  _171
REMARK   74  A    between atoms: _171  and  _172
REMARK   75  A    between atoms: _171  and  _174
REMARK   76  A    between atoms: _174  and  _175
REMARK   77  A    between atoms: _181  and  _183
REMARK   78  A    between atoms: _183  and  _184
REMARK   79  A    between atoms: _183  and  _186
REMARK   80  A    between atoms: _186  and  _187
REMARK   81  A    between atoms: _190  and  _192
REMARK   82  A    between atoms: _192  and  _193
REMARK   83  A    between atoms: _192  and  _195
REMARK   84  A    between atoms: _198  and  _200
REMARK   85  A    between atoms: _200  and  _201
REMARK   86  A    between atoms: _200  and  _203
REMARK   87  A    between atoms: _203  and  _204
REMARK   88  A    between atoms: _207  and  _209
REMARK   89  A    between atoms: _209  and  _210
REMARK   90  A    between atoms: _209  and  _212
REMARK   91  A    between atoms: _212  and  _213
REMARK   92  A    between atoms: _217  and  _218
REMARK   93  A    between atoms: _223  and  _225
REMARK   94  A    between atoms: _225  and  _226
REMARK   95  A    between atoms: _225  and  _228
REMARK   96  A    between atoms: _231  and  _233
REMARK   97  A    between atoms: _233  and  _234
REMARK   98  A    between atoms: _233  and  _236
REMARK   99  A    between atoms: _236  and  _237
REMARK  100  A    between atoms: _242  and  _244
REMARK  101  A    between atoms: _244  and  _245
REMARK  102  A    between atoms: _244  and  _247
REMARK  103  A    between atoms: _247  and  _248
REMARK  104  A    between atoms: _251  and  _253
REMARK  105  A    between atoms: _253  and  _254
REMARK  106  A    between atoms: _253  and  _256
REMARK  107  A    between atoms: _256  and  _257
REMARK  108  A    between atoms: _260  and  _262
REMARK  109  A    between atoms: _262  and  _263
REMARK  110  A    between atoms: _265  and  _267
REMARK  111  A    between atoms: _267  and  _268
REMARK  112  A    between atoms: _267  and  _270
REMARK  113  A    between atoms: _270  and  _271
REMARK  114  A    between atoms: _271  and  _272
REMARK  115  A    between atoms: _272  and  _273
REMARK  116  A    between atoms: _282  and  _284
REMARK  117  A    between atoms: _284  and  _285
REMARK  118  A    between atoms: _284  and  _287
REMARK  119  A    between atoms: _287  and  _288
REMARK  120  A    between atoms: _293  and  _295
REMARK  121  A    between atoms: _295  and  _296
REMARK  122  A    between atoms: _295  and  _298
REMARK  123  A    between atoms: _298  and  _299
REMARK  124  A    between atoms: _299  and  _300
REMARK  125  A    between atoms: _300  and  _301
REMARK  126  A    between atoms: _310  and  _312
REMARK  127  A    between atoms: _312  and  _313
REMARK  128  A    between atoms: _312  and  _315
REMARK  129  A    between atoms: _315  and  _316
REMARK  130  A    between atoms: _319  and  _321
REMARK  131  A    between atoms: _321  and  _322
REMARK  132  A    between atoms: _321  and  _324
REMARK  133  A    between atoms: _324  and  _325
REMARK  134  A    between atoms: _328  and  _330
REMARK  135  A    between atoms: _330  and  _331
REMARK  136  A    between atoms: _330  and  _333
REMARK  137  A    between atoms: _333  and  _334
REMARK  138  A    between atoms: _337  and  _339
REMARK  139  A    between atoms: _339  and  _340
REMARK  140  A    between atoms: _339  and  _342
REMARK  141  A    between atoms: _342  and  _343
REMARK  142  A    between atoms: _346  and  _348
REMARK  143  A    between atoms: _348  and  _349
REMARK  144  A    between atoms: _351  and  _353
REMARK  145  A    between atoms: _353  and  _354
REMARK  146  A    between atoms: _357  and  _359
REMARK  147  A    between atoms: _359  and  _360
REMARK  148  A    between atoms: _359  and  _362
REMARK  149  A    between atoms: _362  and  _363
REMARK  150  A    between atoms: _366  and  _368
REMARK  151  A    between atoms: _368  and  _369
REMARK  152  A    between atoms: _368  and  _371
REMARK  153  A    between atoms: _371  and  _372
REMARK  154  A    between atoms: _375  and  _377
REMARK  155  A    between atoms: _377  and  _378
REMARK  156  A    between atoms: _377  and  _380
REMARK  157  A    between atoms: _380  and  _381
REMARK  158  A    between atoms: _384  and  _386
REMARK  159  A    between atoms: _386  and  _387
REMARK  160  A    between atoms: _386  and  _389
REMARK  161  A    between atoms: _392  and  _394
REMARK  162  A    between atoms: _394  and  _395
REMARK  163  A    between atoms: _394  and  _397
REMARK  164  A    between atoms: _397  and  _398
REMARK  165  A    between atoms: _401  and  _403
REMARK  166  A    between atoms: _403  and  _404
REMARK  167  A    between atoms: _403  and  _406
REMARK  168  A    between atoms: _406  and  _407
REMARK  169  A    between atoms: _407  and  _408
REMARK  170  A    between atoms: _408  and  _409
REMARK  171  A    between atoms: _409  and  _410
REMARK  172  A    between atoms: _414  and  _416
REMARK  173  A    between atoms: _416  and  _417
REMARK  174  A    between atoms: _416  and  _419
REMARK  175  A    between atoms: _419  and  _420
REMARK  176  A    between atoms: _420  and  _421
REMARK  177  A    between atoms: _423  and  _425
REMARK  178  A    between atoms: _425  and  _426
REMARK  179  A    between atoms: _425  and  _428
REMARK  180  A    between atoms: _428  and  _429
REMARK  181  A    between atoms: _432  and  _434
REMARK  182  A    between atoms: _434  and  _435
REMARK  183  A    between atoms: _437  and  _439
REMARK  184  A    between atoms: _439  and  _440
REMARK  185  A    between atoms: _442  and  _444
REMARK  186  A    between atoms: _444  and  _445
REMARK  187  A    between atoms: _444  and  _447
REMARK  188  A    between atoms: _447  and  _448
REMARK  189  A    between atoms: _451  and  _453
REMARK  190  A    between atoms: _453  and  _454
REMARK  191  A    between atoms: _456  and  _458
REMARK  192  A    between atoms: _458  and  _459
REMARK  193  A    between atoms: _461  and  _463
REMARK  194  A    between atoms: _463  and  _464
REMARK  195  A    between atoms: _463  and  _466
REMARK  196  A    between atoms: _466  and  _467
REMARK  197  A    between atoms: _473  and  _475
REMARK  198  A    between atoms: _475  and  _476
REMARK  199  A    between atoms: _475  and  _478
REMARK  200  A    between atoms: _478  and  _479
REMARK  201  A    between atoms: _482  and  _484
REMARK  202  A    between atoms: _484  and  _485
REMARK  203  A    between atoms: _484  and  _487
REMARK  204  A    between atoms: _490  and  _492
REMARK  205  A    between atoms: _492  and  _493
REMARK  206  A    between atoms: _492  and  _495
REMARK  207  A    between atoms: _495  and  _496
REMARK  208  A    between atoms: _499  and  _501
REMARK  209  A    between atoms: _501  and  _502
REMARK  210  A    between atoms: _501  and  _504
REMARK  211  A    between atoms: _504  and  _505
REMARK  212  A    between atoms: _509  and  _510
REMARK  213  A    between atoms: _515  and  _517
REMARK  214  A    between atoms: _517  and  _518
REMARK  215  A    between atoms: _517  and  _520
REMARK  216  A    between atoms: _523  and  _525
REMARK  217  A    between atoms: _525  and  _526
REMARK  218  A    between atoms: _525  and  _528
REMARK  219  A    between atoms: _528  and  _529
REMARK  220  A    between atoms: _534  and  _536
REMARK  221  A    between atoms: _536  and  _537
REMARK  222  A    between atoms: _536  and  _539
REMARK  223  A    between atoms: _539  and  _540
REMARK  224  A    between atoms: _543  and  _545
REMARK  225  A    between atoms: _545  and  _546
REMARK  226  A    between atoms: _545  and  _548
REMARK  227  A    between atoms: _548  and  _549
REMARK  228  A    between atoms: _552  and  _554
REMARK  229  A    between atoms: _554  and  _555
REMARK  230  A    between atoms: _557  and  _559
REMARK  231  A    between atoms: _559  and  _560
REMARK  232  A    between atoms: _559  and  _562
REMARK  233  A    between atoms: _562  and  _563
REMARK  234  A    between atoms: _563  and  _564
REMARK  235  A    between atoms: _564  and  _565
REMARK  236  A    between atoms: _574  and  _576
REMARK  237  A    between atoms: _576  and  _577
REMARK  238  A    between atoms: _576  and  _579
REMARK  239  A    between atoms: _579  and  _580
REMARK                            x       y       z     vdW  Elec       q    Type
REMARK                         _______ _______ _______ _____ _____    ______ ____
ROOT
ATOM      1  O   HOH     1      20.783  32.648  23.101  0.00  0.00    +0.000 OA
ENDROOT
TORSDOF 0
REMARK  Name = ../refined-set-2016/1sdu/1sdu_pocket.pdb
REMARK  239 active torsions:
REMARK  status: ('A' for Active; 'I' for Inactive)
REMARK    1  A    between atoms: _1  and  _3
REMARK    2  A    between atoms: _3  and  _4
REMARK    3  A    between atoms: _3  and  _6
REMARK    4  A    between atoms: _6  and  _7
REMARK    5  A    between atoms: _7  and  _8
REMARK    6  A    between atoms: _8  and  _9
REMARK    7  A    between atoms: _18  and  _20
REMARK    8  A    between atoms: _20  and  _21
REMARK    9  A    between atoms: _20  and  _23
REMARK   10  A    between atoms: _23  and  _24
REMARK   11  A    between atoms: _27  and  _29
REMARK   12  A    between atoms: _29  and  _30
REMARK   13  A    between atoms: _29  and  _32
REMARK   14  A    between atoms: _32  and  _33
REMARK   15  A    between atoms: _36  and  _38
REMARK   16  A    between atoms: _38  and  _39
REMARK   17  A    between atoms: _38  and  _41
REMARK   18  A    between atoms: _41  and  _42
REMARK   19  A    between atoms: _45  and  _47
REMARK   20  A    between atoms: _47  and  _48
REMARK   21  A    between atoms: _47  and  _50
REMARK   22  A    between atoms: _50  and  _51
REMARK   23  A    between atoms: _54  and  _56
REMARK   24  A    between atoms: _56  and  _57
REMARK   25  A    between atoms: _56  and  _59
REMARK   26  A    between atoms: _59  and  _60
REMARK   27  A    between atoms: _63  and  _65
REMARK   28  A    between atoms: _65  and  _66
REMARK   29  A    between atoms: _68  and  _70
REMARK   30  A    between atoms: _70  and  _71
REMARK   31  A    between atoms: _74  and  _76
REMARK   32  A    between atoms: _76  and  _77
REMARK   33  A    between atoms: _76  and  _79
REMARK   34  A    between atoms: _79  and  _80
REMARK   35  A    between atoms: _83  and  _85
REMARK   36  A    between atoms: _85  and  _86
REMARK   37  A    between atoms: _85  and  _88
REMARK   38  A    between atoms: _88  and  _89
REMARK   39  A    between atoms: _92  and  _94
REMARK   40  A    between atoms: _94  and  _95
REMARK   41  A    between atoms: _94  and  _97
REMARK   42  A    between atoms: _97  and  _98
REMARK   43  A    between atoms: _101  and  _103
REMARK   44  A    between atoms: _103  and  _104
REMARK   45  A    between atoms: _103  and  _106
REMARK   46  A    between atoms: _109  and  _111
REMARK   47  A    between atoms: _111  and  _112
REMARK   48  A    between atoms: _111  and  _114
REMARK   49  A    between atoms: _115  and  _116
REMARK   50  A    between atoms: _116  and  _117
REMARK   51  A    between atoms: _117  and  _118
REMARK   52  A    between atoms: _122  and  _124
REMARK   53  A    between atoms: _124  and  _125
REMARK   54  A    between atoms: _124  and  _127
REMARK   55  A    between atoms: _127  and  _128
REMARK   56  A    between atoms: _128  and  _129
REMARK   57  A    between atoms: _131  and  _133
REMARK   58  A    between atoms: _133  and  _134
REMARK   59  A    between atoms: _133  and  _136
REMARK   60  A    between atoms: _136  and  _137
REMARK   61  A    between atoms: _140  and  _142
REMARK   62  A    between atoms: _142  and  _143
REMARK   63  A    between atoms: _145  and  _147
REMARK   64  A    between atoms: _147  and  _148
REMARK   65  A    between atoms: _150  and  _152
REMARK   66  A    between atoms: _152  and  _153
REMARK   67  A    between atoms: _152  and  _155
REMARK   68  A    between atoms: _155  and  _156
REMARK   69  A    between atoms: _159  and  _161
REMARK   70  A    between atoms: _161  and  _162
REMARK   71  A    between atoms: _164  and  _166
REMARK   72  A    between atoms: _166  and  _167
REMARK   73  A    between atoms: _169  and  _171
REMARK   74  A    between atoms: _171  and  _172
REMARK   75  A    between atoms: _171  and  _174
REMARK   76  A    between atoms: _174  and  _175
REMARK   77  A    between atoms: _181  and  _183
REMARK   78  A    between atoms: _183  and  _184
REMARK   79  A    between atoms: _183  and  _186
REMARK   80  A    between atoms: _186  and  _187
REMARK   81  A    between atoms: _190  and  _192
REMARK   82  A    between atoms: _192  and  _193
REMARK   83  A    between atoms: _192  and  _195
REMARK   84  A    between atoms: _198  and  _200
REMARK   85  A    between atoms: _200  and  _201
REMARK   86  A    between atoms: _200  and  _203
REMARK   87  A    between atoms: _203  and  _204
REMARK   88  A    between atoms: _207  and  _209
REMARK   89  A    between atoms: _209  and  _210
REMARK   90  A    between atoms: _209  and  _212
REMARK   91  A    between atoms: _212  and  _213
REMARK   92  A    between atoms: _217  and  _218
REMARK   93  A    between atoms: _223  and  _225
REMARK   94  A    between atoms: _225  and  _226
REMARK   95  A    between atoms: _225  and  _228
REMARK   96  A    between atoms: _231  and  _233
REMARK   97  A    between atoms: _233  and  _234
REMARK   98  A    between atoms: _233  and  _236
REMARK   99  A    between atoms: _236  and  _237
REMARK  100  A    between atoms: _242  and  _244
REMARK  101  A    between atoms: _244  and  _245
REMARK  102  A    between atoms: _244  and  _247
REMARK  103  A    between atoms: _247  and  _248
REMARK  104  A    between atoms: _251  and  _253
REMARK  105  A    between atoms: _253  and  _254
REMARK  106  A    between atoms: _253  and  _256
REMARK  107  A    between atoms: _256  and  _257
REMARK  108  A    between atoms: _260  and  _262
REMARK  109  A    between atoms: _262  and  _263
REMARK  110  A    between atoms: _265  and  _267
REMARK  111  A    between atoms: _267  and  _268
REMARK  112  A    between atoms: _267  and  _270
REMARK  113  A    between atoms: _270  and  _271
REMARK  114  A    between atoms: _271  and  _272
REMARK  115  A    between atoms: _272  and  _273
REMARK  116  A    between atoms: _282  and  _284
REMARK  117  A    between atoms: _284  and  _285
REMARK  118  A    between atoms: _284  and  _287
REMARK  119  A    between atoms: _287  and  _288
REMARK  120  A    between atoms: _293  and  _295
REMARK  121  A    between atoms: _295  and  _296
REMARK  122  A    between atoms: _295  and  _298
REMARK  123  A    between atoms: _298  and  _299
REMARK  124  A    between atoms: _299  and  _300
REMARK  125  A    between atoms: _300  and  _301
REMARK  126  A    between atoms: _310  and  _312
REMARK  127  A    between atoms: _312  and  _313
REMARK  128  A    between atoms: _312  and  _315
REMARK  129  A    between atoms: _315  and  _316
REMARK  130  A    between atoms: _319  and  _321
REMARK  131  A    between atoms: _321  and  _322
REMARK  132  A    between atoms: _321  and  _324
REMARK  133  A    between atoms: _324  and  _325
REMARK  134  A    between atoms: _328  and  _330
REMARK  135  A    between atoms: _330  and  _331
REMARK  136  A    between atoms: _330  and  _333
REMARK  137  A    between atoms: _333  and  _334
REMARK  138  A    between atoms: _337  and  _339
REMARK  139  A    between atoms: _339  and  _340
REMARK  140  A    between atoms: _339  and  _342
REMARK  141  A    between atoms: _342  and  _343
REMARK  142  A    between atoms: _346  and  _348
REMARK  143  A    between atoms: _348  and  _349
REMARK  144  A    between atoms: _351  and  _353
REMARK  145  A    between atoms: _353  and  _354
REMARK  146  A    between atoms: _357  and  _359
REMARK  147  A    between atoms: _359  and  _360
REMARK  148  A    between atoms: _359  and  _362
REMARK  149  A    between atoms: _362  and  _363
REMARK  150  A    between atoms: _366  and  _368
REMARK  151  A    between atoms: _368  and  _369
REMARK  152  A    between atoms: _368  and  _371
REMARK  153  A    between atoms: _371  and  _372
REMARK  154  A    between atoms: _375  and  _377
REMARK  155  A    between atoms: _377  and  _378
REMARK  156  A    between atoms: _377  and  _380
REMARK  157  A    between atoms: _380  and  _381
REMARK  158  A    between atoms: _384  and  _386
REMARK  159  A    between atoms: _386  and  _387
REMARK  160  A    between atoms: _386  and  _389
REMARK  161  A    between atoms: _392  and  _394
REMARK  162  A    between atoms: _394  and  _395
REMARK  163  A    between atoms: _394  and  _397
REMARK  164  A    between atoms: _397  and  _398
REMARK  165  A    between atoms: _401  and  _403
REMARK  166  A    between atoms: _403  and  _404
REMARK  167  A    between atoms: _403  and  _406
REMARK  168  A    between atoms: _406  and  _407
REMARK  169  A    between atoms: _407  and  _408
REMARK  170  A    between atoms: _408  and  _409
REMARK  171  A    between atoms: _409  and  _410
REMARK  172  A    between atoms: _414  and  _416
REMARK  173  A    between atoms: _416  and  _417
REMARK  174  A    between atoms: _416  and  _419
REMARK  175  A    between atoms: _419  and  _420
REMARK  176  A    between atoms: _420  and  _421
REMARK  177  A    between atoms: _423  and  _425
REMARK  178  A    between atoms: _425  and  _426
REMARK  179  A    between atoms: _425  and  _428
REMARK  180  A    between atoms: _428  and  _429
REMARK  181  A    between atoms: _432  and  _434
REMARK  182  A    between atoms: _434  and  _435
REMARK  183  A    between atoms: _437  and  _439
REMARK  184  A    between atoms: _439  and  _440
REMARK  185  A    between atoms: _442  and  _444
REMARK  186  A    between atoms: _444  and  _445
REMARK  187  A    between atoms: _444  and  _447
REMARK  188  A    between atoms: _447  and  _448
REMARK  189  A    between atoms: _451  and  _453
REMARK  190  A    between atoms: _453  and  _454
REMARK  191  A    between atoms: _456  and  _458
REMARK  192  A    between atoms: _458  and  _459
REMARK  193  A    between atoms: _461  and  _463
REMARK  194  A    between atoms: _463  and  _464
REMARK  195  A    between atoms: _463  and  _466
REMARK  196  A    between atoms: _466  and  _467
REMARK  197  A    between atoms: _473  and  _475
REMARK  198  A    between atoms: _475  and  _476
REMARK  199  A    between atoms: _475  and  _478
REMARK  200  A    between atoms: _478  and  _479
REMARK  201  A    between atoms: _482  and  _484
REMARK  202  A    between atoms: _484  and  _485
REMARK  203  A    between atoms: _484  and  _487
REMARK  204  A    between atoms: _490  and  _492
REMARK  205  A    between atoms: _492  and  _493
REMARK  206  A    between atoms: _492  and  _495
REMARK  207  A    between atoms: _495  and  _496
REMARK  208  A    between atoms: _499  and  _501
REMARK  209  A    between atoms: _501  and  _502
REMARK  210  A    between atoms: _501  and  _504
REMARK  211  A    between atoms: _504  and  _505
REMARK  212  A    between atoms: _509  and  _510
REMARK  213  A    between atoms: _515  and  _517
REMARK  214  A    between atoms: _517  and  _518
REMARK  215  A    between atoms: _517  and  _520
REMARK  216  A    between atoms: _523  and  _525
REMARK  217  A    between atoms: _525  and  _526
REMARK  218  A    between atoms: _525  and  _528
REMARK  219  A    between atoms: _528  and  _529
REMARK  220  A    between atoms: _534  and  _536
REMARK  221  A    between atoms: _536  and  _537
REMARK  222  A    between atoms: _536  and  _539
REMARK  223  A    between atoms: _539  and  _540
REMARK  224  A    between atoms: _543  and  _545
REMARK  225  A    between atoms: _545  and  _546
REMARK  226  A    between atoms: _545  and  _548
REMARK  227  A    between atoms: _548  and  _549
REMARK  228  A    between atoms: _552  and  _554
REMARK  229  A    between atoms: _554  and  _555
REMARK  230  A    between atoms: _557  and  _559
REMARK  231  A    between atoms: _559  and  _560
REMARK  232  A    between atoms: _559  and  _562
REMARK  233  A    between atoms: _562  and  _563
REMARK  234  A    between atoms: _563  and  _564
REMARK  235  A    between atoms: _564  and  _565
REMARK  236  A    between atoms: _574  and  _576
REMARK  237  A    between atoms: _576  and  _577
REMARK  238  A    between atoms: _576  and  _579
REMARK  239  A    between atoms: _579  and  _580
REMARK                            x       y       z     vdW  Elec       q    Type
REMARK                         _______ _______ _______ _____ _____    ______ ____
ROOT
ATOM      1  O   HOH     1      21.688  34.896  19.152  0.00  0.00    +0.000 OA
ENDROOT
TORSDOF 0
REMARK  Name = ../refined-set-2016/1sdu/1sdu_pocket.pdb
REMARK  239 active torsions:
REMARK  status: ('A' for Active; 'I' for Inactive)
REMARK    1  A    between atoms: _1  and  _3
REMARK    2  A    between atoms: _3  and  _4
REMARK    3  A    between atoms: _3  and  _6
REMARK    4  A    between atoms: _6  and  _7
REMARK    5  A    between atoms: _7  and  _8
REMARK    6  A    between atoms: _8  and  _9
REMARK    7  A    between atoms: _18  and  _20
REMARK    8  A    between atoms: _20  and  _21
REMARK    9  A    between atoms: _20  and  _23
REMARK   10  A    between atoms: _23  and  _24
REMARK   11  A    between atoms: _27  and  _29
REMARK   12  A    between atoms: _29  and  _30
REMARK   13  A    between atoms: _29  and  _32
REMARK   14  A    between atoms: _32  and  _33
REMARK   15  A    between atoms: _36  and  _38
REMARK   16  A    between atoms: _38  and  _39
REMARK   17  A    between atoms: _38  and  _41
REMARK   18  A    between atoms: _41  and  _42
REMARK   19  A    between atoms: _45  and  _47
REMARK   20  A    between atoms: _47  and  _48
REMARK   21  A    between atoms: _47  and  _50
REMARK   22  A    between atoms: _50  and  _51
REMARK   23  A    between atoms: _54  and  _56
REMARK   24  A    between atoms: _56  and  _57
REMARK   25  A    between atoms: _56  and  _59
REMARK   26  A    between atoms: _59  and  _60
REMARK   27  A    between atoms: _63  and  _65
REMARK   28  A    between atoms: _65  and  _66
REMARK   29  A    between atoms: _68  and  _70
REMARK   30  A    between atoms: _70  and  _71
REMARK   31  A    between atoms: _74  and  _76
REMARK   32  A    between atoms: _76  and  _77
REMARK   33  A    between atoms: _76  and  _79
REMARK   34  A    between atoms: _79  and  _80
REMARK   35  A    between atoms: _83  and  _85
REMARK   36  A    between atoms: _85  and  _86
REMARK   37  A    between atoms: _85  and  _88
REMARK   38  A    between atoms: _88  and  _89
REMARK   39  A    between atoms: _92  and  _94
REMARK   40  A    between atoms: _94  and  _95
REMARK   41  A    between atoms: _94  and  _97
REMARK   42  A    between atoms: _97  and  _98
REMARK   43  A    between atoms: _101  and  _103
REMARK   44  A    between atoms: _103  and  _104
REMARK   45  A    between atoms: _103  and  _106
REMARK   46  A    between atoms: _109  and  _111
REMARK   47  A    between atoms: _111  and  _112
REMARK   48  A    between atoms: _111  and  _114
REMARK   49  A    between atoms: _115  and  _116
REMARK   50  A    between atoms: _116  and  _117
REMARK   51  A    between atoms: _117  and  _118
REMARK   52  A    between atoms: _122  and  _124
REMARK   53  A    between atoms: _124  and  _125
REMARK   54  A    between atoms: _124  and  _127
REMARK   55  A    between atoms: _127  and  _128
REMARK   56  A    between atoms: _128  and  _129
REMARK   57  A    between atoms: _131  and  _133
REMARK   58  A    between atoms: _133  and  _134
REMARK   59  A    between atoms: _133  and  _136
REMARK   60  A    between atoms: _136  and  _137
REMARK   61  A    between atoms: _140  and  _142
REMARK   62  A    between atoms: _142  and  _143
REMARK   63  A    between atoms: _145  and  _147
REMARK   64  A    between atoms: _147  and  _148
REMARK   65  A    between atoms: _150  and  _152
REMARK   66  A    between atoms: _152  and  _153
REMARK   67  A    between atoms: _152  and  _155
REMARK   68  A    between atoms: _155  and  _156
REMARK   69  A    between atoms: _159  and  _161
REMARK   70  A    between atoms: _161  and  _162
REMARK   71  A    between atoms: _164  and  _166
REMARK   72  A    between atoms: _166  and  _167
REMARK   73  A    between atoms: _169  and  _171
REMARK   74  A    between atoms: _171  and  _172
REMARK   75  A    between atoms: _171  and  _174
REMARK   76  A    between atoms: _174  and  _175
REMARK   77  A    between atoms: _181  and  _183
REMARK   78  A    between atoms: _183  and  _184
REMARK   79  A    between atoms: _183  and  _186
REMARK   80  A    between atoms: _186  and  _187
REMARK   81  A    between atoms: _190  and  _192
REMARK   82  A    between atoms: _192  and  _193
REMARK   83  A    between atoms: _192  and  _195
REMARK   84  A    between atoms: _198  and  _200
REMARK   85  A    between atoms: _200  and  _201
REMARK   86  A    between atoms: _200  and  _203
REMARK   87  A    between atoms: _203  and  _204
REMARK   88  A    between atoms: _207  and  _209
REMARK   89  A    between atoms: _209  and  _210
REMARK   90  A    between atoms: _209  and  _212
REMARK   91  A    between atoms: _212  and  _213
REMARK   92  A    between atoms: _217  and  _218
REMARK   93  A    between atoms: _223  and  _225
REMARK   94  A    between atoms: _225  and  _226
REMARK   95  A    between atoms: _225  and  _228
REMARK   96  A    between atoms: _231  and  _233
REMARK   97  A    between atoms: _233  and  _234
REMARK   98  A    between atoms: _233  and  _236
REMARK   99  A    between atoms: _236  and  _237
REMARK  100  A    between atoms: _242  and  _244
REMARK  101  A    between atoms: _244  and  _245
REMARK  102  A    between atoms: _244  and  _247
REMARK  103  A    between atoms: _247  and  _248
REMARK  104  A    between atoms: _251  and  _253
REMARK  105  A    between atoms: _253  and  _254
REMARK  106  A    between atoms: _253  and  _256
REMARK  107  A    between atoms: _256  and  _257
REMARK  108  A    between atoms: _260  and  _262
REMARK  109  A    between atoms: _262  and  _263
REMARK  110  A    between atoms: _265  and  _267
REMARK  111  A    between atoms: _267  and  _268
REMARK  112  A    between atoms: _267  and  _270
REMARK  113  A    between atoms: _270  and  _271
REMARK  114  A    between atoms: _271  and  _272
REMARK  115  A    between atoms: _272  and  _273
REMARK  116  A    between atoms: _282  and  _284
REMARK  117  A    between atoms: _284  and  _285
REMARK  118  A    between atoms: _284  and  _287
REMARK  119  A    between atoms: _287  and  _288
REMARK  120  A    between atoms: _293  and  _295
REMARK  121  A    between atoms: _295  and  _296
REMARK  122  A    between atoms: _295  and  _298
REMARK  123  A    between atoms: _298  and  _299
REMARK  124  A    between atoms: _299  and  _300
REMARK  125  A    between atoms: _300  and  _301
REMARK  126  A    between atoms: _310  and  _312
REMARK  127  A    between atoms: _312  and  _313
REMARK  128  A    between atoms: _312  and  _315
REMARK  129  A    between atoms: _315  and  _316
REMARK  130  A    between atoms: _319  and  _321
REMARK  131  A    between atoms: _321  and  _322
REMARK  132  A    between atoms: _321  and  _324
REMARK  133  A    between atoms: _324  and  _325
REMARK  134  A    between atoms: _328  and  _330
REMARK  135  A    between atoms: _330  and  _331
REMARK  136  A    between atoms: _330  and  _333
REMARK  137  A    between atoms: _333  and  _334
REMARK  138  A    between atoms: _337  and  _339
REMARK  139  A    between atoms: _339  and  _340
REMARK  140  A    between atoms: _339  and  _342
REMARK  141  A    between atoms: _342  and  _343
REMARK  142  A    between atoms: _346  and  _348
REMARK  143  A    between atoms: _348  and  _349
REMARK  144  A    between atoms: _351  and  _353
REMARK  145  A    between atoms: _353  and  _354
REMARK  146  A    between atoms: _357  and  _359
REMARK  147  A    between atoms: _359  and  _360
REMARK  148  A    between atoms: _359  and  _362
REMARK  149  A    between atoms: _362  and  _363
REMARK  150  A    between atoms: _366  and  _368
REMARK  151  A    between atoms: _368  and  _369
REMARK  152  A    between atoms: _368  and  _371
REMARK  153  A    between atoms: _371  and  _372
REMARK  154  A    between atoms: _375  and  _377
REMARK  155  A    between atoms: _377  and  _378
REMARK  156  A    between atoms: _377  and  _380
REMARK  157  A    between atoms: _380  and  _381
REMARK  158  A    between atoms: _384  and  _386
REMARK  159  A    between atoms: _386  and  _387
REMARK  160  A    between atoms: _386  and  _389
REMARK  161  A    between atoms: _392  and  _394
REMARK  162  A    between atoms: _394  and  _395
REMARK  163  A    between atoms: _394  and  _397
REMARK  164  A    between atoms: _397  and  _398
REMARK  165  A    between atoms: _401  and  _403
REMARK  166  A    between atoms: _403  and  _404
REMARK  167  A    between atoms: _403  and  _406
REMARK  168  A    between atoms: _406  and  _407
REMARK  169  A    between atoms: _407  and  _408
REMARK  170  A    between atoms: _408  and  _409
REMARK  171  A    between atoms: _409  and  _410
REMARK  172  A    between atoms: _414  and  _416
REMARK  173  A    between atoms: _416  and  _417
REMARK  174  A    between atoms: _416  and  _419
REMARK  175  A    between atoms: _419  and  _420
REMARK  176  A    between atoms: _420  and  _421
REMARK  177  A    between atoms: _423  and  _425
REMARK  178  A    between atoms: _425  and  _426
REMARK  179  A    between atoms: _425  and  _428
REMARK  180  A    between atoms: _428  and  _429
REMARK  181  A    between atoms: _432  and  _434
REMARK  182  A    between atoms: _434  and  _435
REMARK  183  A    between atoms: _437  and  _439
REMARK  184  A    between atoms: _439  and  _440
REMARK  185  A    between atoms: _442  and  _444
REMARK  186  A    between atoms: _444  and  _445
REMARK  187  A    between atoms: _444  and  _447
REMARK  188  A    between atoms: _447  and  _448
REMARK  189  A    between atoms: _451  and  _453
REMARK  190  A    between atoms: _453  and  _454
REMARK  191  A    between atoms: _456  and  _458
REMARK  192  A    between atoms: _458  and  _459
REMARK  193  A    between atoms: _461  and  _463
REMARK  194  A    between atoms: _463  and  _464
REMARK  195  A    between atoms: _463  and  _466
REMARK  196  A    between atoms: _466  and  _467
REMARK  197  A    between atoms: _473  and  _475
REMARK  198  A    between atoms: _475  and  _476
REMARK  199  A    between atoms: _475  and  _478
REMARK  200  A    between atoms: _478  and  _479
REMARK  201  A    between atoms: _482  and  _484
REMARK  202  A    between atoms: _484  and  _485
REMARK  203  A    between atoms: _484  and  _487
REMARK  204  A    between atoms: _490  and  _492
REMARK  205  A    between atoms: _492  and  _493
REMARK  206  A    between atoms: _492  and  _495
REMARK  207  A    between atoms: _495  and  _496
REMARK  208  A    between atoms: _499  and  _501
REMARK  209  A    between atoms: _501  and  _502
REMARK  210  A    between atoms: _501  and  _504
REMARK  211  A    between atoms: _504  and  _505
REMARK  212  A    between atoms: _509  and  _510
REMARK  213  A    between atoms: _515  and  _517
REMARK  214  A    between atoms: _517  and  _518
REMARK  215  A    between atoms: _517  and  _520
REMARK  216  A    between atoms: _523  and  _525
REMARK  217  A    between atoms: _525  and  _526
REMARK  218  A    between atoms: _525  and  _528
REMARK  219  A    between atoms: _528  and  _529
REMARK  220  A    between atoms: _534  and  _536
REMARK  221  A    between atoms: _536  and  _537
REMARK  222  A    between atoms: _536  and  _539
REMARK  223  A    between atoms: _539  and  _540
REMARK  224  A    between atoms: _543  and  _545
REMARK  225  A    between atoms: _545  and  _546
REMARK  226  A    between atoms: _545  and  _548
REMARK  227  A    between atoms: _548  and  _549
REMARK  228  A    between atoms: _552  and  _554
REMARK  229  A    between atoms: _554  and  _555
REMARK  230  A    between atoms: _557  and  _559
REMARK  231  A    between atoms: _559  and  _560
REMARK  232  A    between atoms: _559  and  _562
REMARK  233  A    between atoms: _562  and  _563
REMARK  234  A    between atoms: _563  and  _564
REMARK  235  A    between atoms: _564  and  _565
REMARK  236  A    between atoms: _574  and  _576
REMARK  237  A    between atoms: _576  and  _577
REMARK  238  A    between atoms: _576  and  _579
REMARK  239  A    between atoms: _579  and  _580
REMARK                            x       y       z     vdW  Elec       q    Type
REMARK                         _______ _______ _______ _____ _____    ______ ____
ROOT
ATOM      1  O   HOH     1      12.138  20.755  11.100  0.00  0.00    +0.000 OA
ENDROOT
TORSDOF 0
REMARK  Name = ../refined-set-2016/1sdu/1sdu_pocket.pdb
REMARK  239 active torsions:
REMARK  status: ('A' for Active; 'I' for Inactive)
REMARK    1  A    between atoms: _1  and  _3
REMARK    2  A    between atoms: _3  and  _4
REMARK    3  A    between atoms: _3  and  _6
REMARK    4  A    between atoms: _6  and  _7
REMARK    5  A    between atoms: _7  and  _8
REMARK    6  A    between atoms: _8  and  _9
REMARK    7  A    between atoms: _18  and  _20
REMARK    8  A    between atoms: _20  and  _21
REMARK    9  A    between atoms: _20  and  _23
REMARK   10  A    between atoms: _23  and  _24
REMARK   11  A    between atoms: _27  and  _29
REMARK   12  A    between atoms: _29  and  _30
REMARK   13  A    between atoms: _29  and  _32
REMARK   14  A    between atoms: _32  and  _33
REMARK   15  A    between atoms: _36  and  _38
REMARK   16  A    between atoms: _38  and  _39
REMARK   17  A    between atoms: _38  and  _41
REMARK   18  A    between atoms: _41  and  _42
REMARK   19  A    between atoms: _45  and  _47
REMARK   20  A    between atoms: _47  and  _48
REMARK   21  A    between atoms: _47  and  _50
REMARK   22  A    between atoms: _50  and  _51
REMARK   23  A    between atoms: _54  and  _56
REMARK   24  A    between atoms: _56  and  _57
REMARK   25  A    between atoms: _56  and  _59
REMARK   26  A    between atoms: _59  and  _60
REMARK   27  A    between atoms: _63  and  _65
REMARK   28  A    between atoms: _65  and  _66
REMARK   29  A    between atoms: _68  and  _70
REMARK   30  A    between atoms: _70  and  _71
REMARK   31  A    between atoms: _74  and  _76
REMARK   32  A    between atoms: _76  and  _77
REMARK   33  A    between atoms: _76  and  _79
REMARK   34  A    between atoms: _79  and  _80
REMARK   35  A    between atoms: _83  and  _85
REMARK   36  A    between atoms: _85  and  _86
REMARK   37  A    between atoms: _85  and  _88
REMARK   38  A    between atoms: _88  and  _89
REMARK   39  A    between atoms: _92  and  _94
REMARK   40  A    between atoms: _94  and  _95
REMARK   41  A    between atoms: _94  and  _97
REMARK   42  A    between atoms: _97  and  _98
REMARK   43  A    between atoms: _101  and  _103
REMARK   44  A    between atoms: _103  and  _104
REMARK   45  A    between atoms: _103  and  _106
REMARK   46  A    between atoms: _109  and  _111
REMARK   47  A    between atoms: _111  and  _112
REMARK   48  A    between atoms: _111  and  _114
REMARK   49  A    between atoms: _115  and  _116
REMARK   50  A    between atoms: _116  and  _117
REMARK   51  A    between atoms: _117  and  _118
REMARK   52  A    between atoms: _122  and  _124
REMARK   53  A    between atoms: _124  and  _125
REMARK   54  A    between atoms: _124  and  _127
REMARK   55  A    between atoms: _127  and  _128
REMARK   56  A    between atoms: _128  and  _129
REMARK   57  A    between atoms: _131  and  _133
REMARK   58  A    between atoms: _133  and  _134
REMARK   59  A    between atoms: _133  and  _136
REMARK   60  A    between atoms: _136  and  _137
REMARK   61  A    between atoms: _140  and  _142
REMARK   62  A    between atoms: _142  and  _143
REMARK   63  A    between atoms: _145  and  _147
REMARK   64  A    between atoms: _147  and  _148
REMARK   65  A    between atoms: _150  and  _152
REMARK   66  A    between atoms: _152  and  _153
REMARK   67  A    between atoms: _152  and  _155
REMARK   68  A    between atoms: _155  and  _156
REMARK   69  A    between atoms: _159  and  _161
REMARK   70  A    between atoms: _161  and  _162
REMARK   71  A    between atoms: _164  and  _166
REMARK   72  A    between atoms: _166  and  _167
REMARK   73  A    between atoms: _169  and  _171
REMARK   74  A    between atoms: _171  and  _172
REMARK   75  A    between atoms: _171  and  _174
REMARK   76  A    between atoms: _174  and  _175
REMARK   77  A    between atoms: _181  and  _183
REMARK   78  A    between atoms: _183  and  _184
REMARK   79  A    between atoms: _183  and  _186
REMARK   80  A    between atoms: _186  and  _187
REMARK   81  A    between atoms: _190  and  _192
REMARK   82  A    between atoms: _192  and  _193
REMARK   83  A    between atoms: _192  and  _195
REMARK   84  A    between atoms: _198  and  _200
REMARK   85  A    between atoms: _200  and  _201
REMARK   86  A    between atoms: _200  and  _203
REMARK   87  A    between atoms: _203  and  _204
REMARK   88  A    between atoms: _207  and  _209
REMARK   89  A    between atoms: _209  and  _210
REMARK   90  A    between atoms: _209  and  _212
REMARK   91  A    between atoms: _212  and  _213
REMARK   92  A    between atoms: _217  and  _218
REMARK   93  A    between atoms: _223  and  _225
REMARK   94  A    between atoms: _225  and  _226
REMARK   95  A    between atoms: _225  and  _228
REMARK   96  A    between atoms: _231  and  _233
REMARK   97  A    between atoms: _233  and  _234
REMARK   98  A    between atoms: _233  and  _236
REMARK   99  A    between atoms: _236  and  _237
REMARK  100  A    between atoms: _242  and  _244
REMARK  101  A    between atoms: _244  and  _245
REMARK  102  A    between atoms: _244  and  _247
REMARK  103  A    between atoms: _247  and  _248
REMARK  104  A    between atoms: _251  and  _253
REMARK  105  A    between atoms: _253  and  _254
REMARK  106  A    between atoms: _253  and  _256
REMARK  107  A    between atoms: _256  and  _257
REMARK  108  A    between atoms: _260  and  _262
REMARK  109  A    between atoms: _262  and  _263
REMARK  110  A    between atoms: _265  and  _267
REMARK  111  A    between atoms: _267  and  _268
REMARK  112  A    between atoms: _267  and  _270
REMARK  113  A    between atoms: _270  and  _271
REMARK  114  A    between atoms: _271  and  _272
REMARK  115  A    between atoms: _272  and  _273
REMARK  116  A    between atoms: _282  and  _284
REMARK  117  A    between atoms: _284  and  _285
REMARK  118  A    between atoms: _284  and  _287
REMARK  119  A    between atoms: _287  and  _288
REMARK  120  A    between atoms: _293  and  _295
REMARK  121  A    between atoms: _295  and  _296
REMARK  122  A    between atoms: _295  and  _298
REMARK  123  A    between atoms: _298  and  _299
REMARK  124  A    between atoms: _299  and  _300
REMARK  125  A    between atoms: _300  and  _301
REMARK  126  A    between atoms: _310  and  _312
REMARK  127  A    between atoms: _312  and  _313
REMARK  128  A    between atoms: _312  and  _315
REMARK  129  A    between atoms: _315  and  _316
REMARK  130  A    between atoms: _319  and  _321
REMARK  131  A    between atoms: _321  and  _322
REMARK  132  A    between atoms: _321  and  _324
REMARK  133  A    between atoms: _324  and  _325
REMARK  134  A    between atoms: _328  and  _330
REMARK  135  A    between atoms: _330  and  _331
REMARK  136  A    between atoms: _330  and  _333
REMARK  137  A    between atoms: _333  and  _334
REMARK  138  A    between atoms: _337  and  _339
REMARK  139  A    between atoms: _339  and  _340
REMARK  140  A    between atoms: _339  and  _342
REMARK  141  A    between atoms: _342  and  _343
REMARK  142  A    between atoms: _346  and  _348
REMARK  143  A    between atoms: _348  and  _349
REMARK  144  A    between atoms: _351  and  _353
REMARK  145  A    between atoms: _353  and  _354
REMARK  146  A    between atoms: _357  and  _359
REMARK  147  A    between atoms: _359  and  _360
REMARK  148  A    between atoms: _359  and  _362
REMARK  149  A    between atoms: _362  and  _363
REMARK  150  A    between atoms: _366  and  _368
REMARK  151  A    between atoms: _368  and  _369
REMARK  152  A    between atoms: _368  and  _371
REMARK  153  A    between atoms: _371  and  _372
REMARK  154  A    between atoms: _375  and  _377
REMARK  155  A    between atoms: _377  and  _378
REMARK  156  A    between atoms: _377  and  _380
REMARK  157  A    between atoms: _380  and  _381
REMARK  158  A    between atoms: _384  and  _386
REMARK  159  A    between atoms: _386  and  _387
REMARK  160  A    between atoms: _386  and  _389
REMARK  161  A    between atoms: _392  and  _394
REMARK  162  A    between atoms: _394  and  _395
REMARK  163  A    between atoms: _394  and  _397
REMARK  164  A    between atoms: _397  and  _398
REMARK  165  A    between atoms: _401  and  _403
REMARK  166  A    between atoms: _403  and  _404
REMARK  167  A    between atoms: _403  and  _406
REMARK  168  A    between atoms: _406  and  _407
REMARK  169  A    between atoms: _407  and  _408
REMARK  170  A    between atoms: _408  and  _409
REMARK  171  A    between atoms: _409  and  _410
REMARK  172  A    between atoms: _414  and  _416
REMARK  173  A    between atoms: _416  and  _417
REMARK  174  A    between atoms: _416  and  _419
REMARK  175  A    between atoms: _419  and  _420
REMARK  176  A    between atoms: _420  and  _421
REMARK  177  A    between atoms: _423  and  _425
REMARK  178  A    between atoms: _425  and  _426
REMARK  179  A    between atoms: _425  and  _428
REMARK  180  A    between atoms: _428  and  _429
REMARK  181  A    between atoms: _432  and  _434
REMARK  182  A    between atoms: _434  and  _435
REMARK  183  A    between atoms: _437  and  _439
REMARK  184  A    between atoms: _439  and  _440
REMARK  185  A    between atoms: _442  and  _444
REMARK  186  A    between atoms: _444  and  _445
REMARK  187  A    between atoms: _444  and  _447
REMARK  188  A    between atoms: _447  and  _448
REMARK  189  A    between atoms: _451  and  _453
REMARK  190  A    between atoms: _453  and  _454
REMARK  191  A    between atoms: _456  and  _458
REMARK  192  A    between atoms: _458  and  _459
REMARK  193  A    between atoms: _461  and  _463
REMARK  194  A    between atoms: _463  and  _464
REMARK  195  A    between atoms: _463  and  _466
REMARK  196  A    between atoms: _466  and  _467
REMARK  197  A    between atoms: _473  and  _475
REMARK  198  A    between atoms: _475  and  _476
REMARK  199  A    between atoms: _475  and  _478
REMARK  200  A    between atoms: _478  and  _479
REMARK  201  A    between atoms: _482  and  _484
REMARK  202  A    between atoms: _484  and  _485
REMARK  203  A    between atoms: _484  and  _487
REMARK  204  A    between atoms: _490  and  _492
REMARK  205  A    between atoms: _492  and  _493
REMARK  206  A    between atoms: _492  and  _495
REMARK  207  A    between atoms: _495  and  _496
REMARK  208  A    between atoms: _499  and  _501
REMARK  209  A    between atoms: _501  and  _502
REMARK  210  A    between atoms: _501  and  _504
REMARK  211  A    between atoms: _504  and  _505
REMARK  212  A    between atoms: _509  and  _510
REMARK  213  A    between atoms: _515  and  _517
REMARK  214  A    between atoms: _517  and  _518
REMARK  215  A    between atoms: _517  and  _520
REMARK  216  A    between atoms: _523  and  _525
REMARK  217  A    between atoms: _525  and  _526
REMARK  218  A    between atoms: _525  and  _528
REMARK  219  A    between atoms: _528  and  _529
REMARK  220  A    between atoms: _534  and  _536
REMARK  221  A    between atoms: _536  and  _537
REMARK  222  A    between atoms: _536  and  _539
REMARK  223  A    between atoms: _539  and  _540
REMARK  224  A    between atoms: _543  and  _545
REMARK  225  A    between atoms: _545  and  _546
REMARK  226  A    between atoms: _545  and  _548
REMARK  227  A    between atoms: _548  and  _549
REMARK  228  A    between atoms: _552  and  _554
REMARK  229  A    between atoms: _554  and  _555
REMARK  230  A    between atoms: _557  and  _559
REMARK  231  A    between atoms: _559  and  _560
REMARK  232  A    between atoms: _559  and  _562
REMARK  233  A    between atoms: _562  and  _563
REMARK  234  A    between atoms: _563  and  _564
REMARK  235  A    between atoms: _564  and  _565
REMARK  236  A    between atoms: _574  and  _576
REMARK  237  A    between atoms: _576  and  _577
REMARK  238  A    between atoms: _576  and  _579
REMARK  239  A    between atoms: _579  and  _580
REMARK                            x       y       z     vdW  Elec       q    Type
REMARK                         _______ _______ _______ _____ _____    ______ ____
ROOT
ATOM      1  O   HOH     1      17.367  40.160  16.351  0.00  0.00    +0.000 OA
ENDROOT
TORSDOF 0
REMARK  Name = ../refined-set-2016/1sdu/1sdu_pocket.pdb
REMARK  239 active torsions:
REMARK  status: ('A' for Active; 'I' for Inactive)
REMARK    1  A    between atoms: _1  and  _3
REMARK    2  A    between atoms: _3  and  _4
REMARK    3  A    between atoms: _3  and  _6
REMARK    4  A    between atoms: _6  and  _7
REMARK    5  A    between atoms: _7  and  _8
REMARK    6  A    between atoms: _8  and  _9
REMARK    7  A    between atoms: _18  and  _20
REMARK    8  A    between atoms: _20  and  _21
REMARK    9  A    between atoms: _20  and  _23
REMARK   10  A    between atoms: _23  and  _24
REMARK   11  A    between atoms: _27  and  _29
REMARK   12  A    between atoms: _29  and  _30
REMARK   13  A    between atoms: _29  and  _32
REMARK   14  A    between atoms: _32  and  _33
REMARK   15  A    between atoms: _36  and  _38
REMARK   16  A    between atoms: _38  and  _39
REMARK   17  A    between atoms: _38  and  _41
REMARK   18  A    between atoms: _41  and  _42
REMARK   19  A    between atoms: _45  and  _47
REMARK   20  A    between atoms: _47  and  _48
REMARK   21  A    between atoms: _47  and  _50
REMARK   22  A    between atoms: _50  and  _51
REMARK   23  A    between atoms: _54  and  _56
REMARK   24  A    between atoms: _56  and  _57
REMARK   25  A    between atoms: _56  and  _59
REMARK   26  A    between atoms: _59  and  _60
REMARK   27  A    between atoms: _63  and  _65
REMARK   28  A    between atoms: _65  and  _66
REMARK   29  A    between atoms: _68  and  _70
REMARK   30  A    between atoms: _70  and  _71
REMARK   31  A    between atoms: _74  and  _76
REMARK   32  A    between atoms: _76  and  _77
REMARK   33  A    between atoms: _76  and  _79
REMARK   34  A    between atoms: _79  and  _80
REMARK   35  A    between atoms: _83  and  _85
REMARK   36  A    between atoms: _85  and  _86
REMARK   37  A    between atoms: _85  and  _88
REMARK   38  A    between atoms: _88  and  _89
REMARK   39  A    between atoms: _92  and  _94
REMARK   40  A    between atoms: _94  and  _95
REMARK   41  A    between atoms: _94  and  _97
REMARK   42  A    between atoms: _97  and  _98
REMARK   43  A    between atoms: _101  and  _103
REMARK   44  A    between atoms: _103  and  _104
REMARK   45  A    between atoms: _103  and  _106
REMARK   46  A    between atoms: _109  and  _111
REMARK   47  A    between atoms: _111  and  _112
REMARK   48  A    between atoms: _111  and  _114
REMARK   49  A    between atoms: _115  and  _116
REMARK   50  A    between atoms: _116  and  _117
REMARK   51  A    between atoms: _117  and  _118
REMARK   52  A    between atoms: _122  and  _124
REMARK   53  A    between atoms: _124  and  _125
REMARK   54  A    between atoms: _124  and  _127
REMARK   55  A    between atoms: _127  and  _128
REMARK   56  A    between atoms: _128  and  _129
REMARK   57  A    between atoms: _131  and  _133
REMARK   58  A    between atoms: _133  and  _134
REMARK   59  A    between atoms: _133  and  _136
REMARK   60  A    between atoms: _136  and  _137
REMARK   61  A    between atoms: _140  and  _142
REMARK   62  A    between atoms: _142  and  _143
REMARK   63  A    between atoms: _145  and  _147
REMARK   64  A    between atoms: _147  and  _148
REMARK   65  A    between atoms: _150  and  _152
REMARK   66  A    between atoms: _152  and  _153
REMARK   67  A    between atoms: _152  and  _155
REMARK   68  A    between atoms: _155  and  _156
REMARK   69  A    between atoms: _159  and  _161
REMARK   70  A    between atoms: _161  and  _162
REMARK   71  A    between atoms: _164  and  _166
REMARK   72  A    between atoms: _166  and  _167
REMARK   73  A    between atoms: _169  and  _171
REMARK   74  A    between atoms: _171  and  _172
REMARK   75  A    between atoms: _171  and  _174
REMARK   76  A    between atoms: _174  and  _175
REMARK   77  A    between atoms: _181  and  _183
REMARK   78  A    between atoms: _183  and  _184
REMARK   79  A    between atoms: _183  and  _186
REMARK   80  A    between atoms: _186  and  _187
REMARK   81  A    between atoms: _190  and  _192
REMARK   82  A    between atoms: _192  and  _193
REMARK   83  A    between atoms: _192  and  _195
REMARK   84  A    between atoms: _198  and  _200
REMARK   85  A    between atoms: _200  and  _201
REMARK   86  A    between atoms: _200  and  _203
REMARK   87  A    between atoms: _203  and  _204
REMARK   88  A    between atoms: _207  and  _209
REMARK   89  A    between atoms: _209  and  _210
REMARK   90  A    between atoms: _209  and  _212
REMARK   91  A    between atoms: _212  and  _213
REMARK   92  A    between atoms: _217  and  _218
REMARK   93  A    between atoms: _223  and  _225
REMARK   94  A    between atoms: _225  and  _226
REMARK   95  A    between atoms: _225  and  _228
REMARK   96  A    between atoms: _231  and  _233
REMARK   97  A    between atoms: _233  and  _234
REMARK   98  A    between atoms: _233  and  _236
REMARK   99  A    between atoms: _236  and  _237
REMARK  100  A    between atoms: _242  and  _244
REMARK  101  A    between atoms: _244  and  _245
REMARK  102  A    between atoms: _244  and  _247
REMARK  103  A    between atoms: _247  and  _248
REMARK  104  A    between atoms: _251  and  _253
REMARK  105  A    between atoms: _253  and  _254
REMARK  106  A    between atoms: _253  and  _256
REMARK  107  A    between atoms: _256  and  _257
REMARK  108  A    between atoms: _260  and  _262
REMARK  109  A    between atoms: _262  and  _263
REMARK  110  A    between atoms: _265  and  _267
REMARK  111  A    between atoms: _267  and  _268
REMARK  112  A    between atoms: _267  and  _270
REMARK  113  A    between atoms: _270  and  _271
REMARK  114  A    between atoms: _271  and  _272
REMARK  115  A    between atoms: _272  and  _273
REMARK  116  A    between atoms: _282  and  _284
REMARK  117  A    between atoms: _284  and  _285
REMARK  118  A    between atoms: _284  and  _287
REMARK  119  A    between atoms: _287  and  _288
REMARK  120  A    between atoms: _293  and  _295
REMARK  121  A    between atoms: _295  and  _296
REMARK  122  A    between atoms: _295  and  _298
REMARK  123  A    between atoms: _298  and  _299
REMARK  124  A    between atoms: _299  and  _300
REMARK  125  A    between atoms: _300  and  _301
REMARK  126  A    between atoms: _310  and  _312
REMARK  127  A    between atoms: _312  and  _313
REMARK  128  A    between atoms: _312  and  _315
REMARK  129  A    between atoms: _315  and  _316
REMARK  130  A    between atoms: _319  and  _321
REMARK  131  A    between atoms: _321  and  _322
REMARK  132  A    between atoms: _321  and  _324
REMARK  133  A    between atoms: _324  and  _325
REMARK  134  A    between atoms: _328  and  _330
REMARK  135  A    between atoms: _330  and  _331
REMARK  136  A    between atoms: _330  and  _333
REMARK  137  A    between atoms: _333  and  _334
REMARK  138  A    between atoms: _337  and  _339
REMARK  139  A    between atoms: _339  and  _340
REMARK  140  A    between atoms: _339  and  _342
REMARK  141  A    between atoms: _342  and  _343
REMARK  142  A    between atoms: _346  and  _348
REMARK  143  A    between atoms: _348  and  _349
REMARK  144  A    between atoms: _351  and  _353
REMARK  145  A    between atoms: _353  and  _354
REMARK  146  A    between atoms: _357  and  _359
REMARK  147  A    between atoms: _359  and  _360
REMARK  148  A    between atoms: _359  and  _362
REMARK  149  A    between atoms: _362  and  _363
REMARK  150  A    between atoms: _366  and  _368
REMARK  151  A    between atoms: _368  and  _369
REMARK  152  A    between atoms: _368  and  _371
REMARK  153  A    between atoms: _371  and  _372
REMARK  154  A    between atoms: _375  and  _377
REMARK  155  A    between atoms: _377  and  _378
REMARK  156  A    between atoms: _377  and  _380
REMARK  157  A    between atoms: _380  and  _381
REMARK  158  A    between atoms: _384  and  _386
REMARK  159  A    between atoms: _386  and  _387
REMARK  160  A    between atoms: _386  and  _389
REMARK  161  A    between atoms: _392  and  _394
REMARK  162  A    between atoms: _394  and  _395
REMARK  163  A    between atoms: _394  and  _397
REMARK  164  A    between atoms: _397  and  _398
REMARK  165  A    between atoms: _401  and  _403
REMARK  166  A    between atoms: _403  and  _404
REMARK  167  A    between atoms: _403  and  _406
REMARK  168  A    between atoms: _406  and  _407
REMARK  169  A    between atoms: _407  and  _408
REMARK  170  A    between atoms: _408  and  _409
REMARK  171  A    between atoms: _409  and  _410
REMARK  172  A    between atoms: _414  and  _416
REMARK  173  A    between atoms: _416  and  _417
REMARK  174  A    between atoms: _416  and  _419
REMARK  175  A    between atoms: _419  and  _420
REMARK  176  A    between atoms: _420  and  _421
REMARK  177  A    between atoms: _423  and  _425
REMARK  178  A    between atoms: _425  and  _426
REMARK  179  A    between atoms: _425  and  _428
REMARK  180  A    between atoms: _428  and  _429
REMARK  181  A    between atoms: _432  and  _434
REMARK  182  A    between atoms: _434  and  _435
REMARK  183  A    between atoms: _437  and  _439
REMARK  184  A    between atoms: _439  and  _440
REMARK  185  A    between atoms: _442  and  _444
REMARK  186  A    between atoms: _444  and  _445
REMARK  187  A    between atoms: _444  and  _447
REMARK  188  A    between atoms: _447  and  _448
REMARK  189  A    between atoms: _451  and  _453
REMARK  190  A    between atoms: _453  and  _454
REMARK  191  A    between atoms: _456  and  _458
REMARK  192  A    between atoms: _458  and  _459
REMARK  193  A    between atoms: _461  and  _463
REMARK  194  A    between atoms: _463  and  _464
REMARK  195  A    between atoms: _463  and  _466
REMARK  196  A    between atoms: _466  and  _467
REMARK  197  A    between atoms: _473  and  _475
REMARK  198  A    between atoms: _475  and  _476
REMARK  199  A    between atoms: _475  and  _478
REMARK  200  A    between atoms: _478  and  _479
REMARK  201  A    between atoms: _482  and  _484
REMARK  202  A    between atoms: _484  and  _485
REMARK  203  A    between atoms: _484  and  _487
REMARK  204  A    between atoms: _490  and  _492
REMARK  205  A    between atoms: _492  and  _493
REMARK  206  A    between atoms: _492  and  _495
REMARK  207  A    between atoms: _495  and  _496
REMARK  208  A    between atoms: _499  and  _501
REMARK  209  A    between atoms: _501  and  _502
REMARK  210  A    between atoms: _501  and  _504
REMARK  211  A    between atoms: _504  and  _505
REMARK  212  A    between atoms: _509  and  _510
REMARK  213  A    between atoms: _515  and  _517
REMARK  214  A    between atoms: _517  and  _518
REMARK  215  A    between atoms: _517  and  _520
REMARK  216  A    between atoms: _523  and  _525
REMARK  217  A    between atoms: _525  and  _526
REMARK  218  A    between atoms: _525  and  _528
REMARK  219  A    between atoms: _528  and  _529
REMARK  220  A    between atoms: _534  and  _536
REMARK  221  A    between atoms: _536  and  _537
REMARK  222  A    between atoms: _536  and  _539
REMARK  223  A    between atoms: _539  and  _540
REMARK  224  A    between atoms: _543  and  _545
REMARK  225  A    between atoms: _545  and  _546
REMARK  226  A    between atoms: _545  and  _548
REMARK  227  A    between atoms: _548  and  _549
REMARK  228  A    between atoms: _552  and  _554
REMARK  229  A    between atoms: _554  and  _555
REMARK  230  A    between atoms: _557  and  _559
REMARK  231  A    between atoms: _559  and  _560
REMARK  232  A    between atoms: _559  and  _562
REMARK  233  A    between atoms: _562  and  _563
REMARK  234  A    between atoms: _563  and  _564
REMARK  235  A    between atoms: _564  and  _565
REMARK  236  A    between atoms: _574  and  _576
REMARK  237  A    between atoms: _576  and  _577
REMARK  238  A    between atoms: _576  and  _579
REMARK  239  A    between atoms: _579  and  _580
REMARK                            x       y       z     vdW  Elec       q    Type
REMARK                         _______ _______ _______ _____ _____    ______ ____
ROOT
ATOM      1  O   HOH     1      12.399  30.746   5.275  0.00  0.00    +0.000 OA
ENDROOT
TORSDOF 0
REMARK  Name = ../refined-set-2016/1sdu/1sdu_pocket.pdb
REMARK  239 active torsions:
REMARK  status: ('A' for Active; 'I' for Inactive)
REMARK    1  A    between atoms: _1  and  _3
REMARK    2  A    between atoms: _3  and  _4
REMARK    3  A    between atoms: _3  and  _6
REMARK    4  A    between atoms: _6  and  _7
REMARK    5  A    between atoms: _7  and  _8
REMARK    6  A    between atoms: _8  and  _9
REMARK    7  A    between atoms: _18  and  _20
REMARK    8  A    between atoms: _20  and  _21
REMARK    9  A    between atoms: _20  and  _23
REMARK   10  A    between atoms: _23  and  _24
REMARK   11  A    between atoms: _27  and  _29
REMARK   12  A    between atoms: _29  and  _30
REMARK   13  A    between atoms: _29  and  _32
REMARK   14  A    between atoms: _32  and  _33
REMARK   15  A    between atoms: _36  and  _38
REMARK   16  A    between atoms: _38  and  _39
REMARK   17  A    between atoms: _38  and  _41
REMARK   18  A    between atoms: _41  and  _42
REMARK   19  A    between atoms: _45  and  _47
REMARK   20  A    between atoms: _47  and  _48
REMARK   21  A    between atoms: _47  and  _50
REMARK   22  A    between atoms: _50  and  _51
REMARK   23  A    between atoms: _54  and  _56
REMARK   24  A    between atoms: _56  and  _57
REMARK   25  A    between atoms: _56  and  _59
REMARK   26  A    between atoms: _59  and  _60
REMARK   27  A    between atoms: _63  and  _65
REMARK   28  A    between atoms: _65  and  _66
REMARK   29  A    between atoms: _68  and  _70
REMARK   30  A    between atoms: _70  and  _71
REMARK   31  A    between atoms: _74  and  _76
REMARK   32  A    between atoms: _76  and  _77
REMARK   33  A    between atoms: _76  and  _79
REMARK   34  A    between atoms: _79  and  _80
REMARK   35  A    between atoms: _83  and  _85
REMARK   36  A    between atoms: _85  and  _86
REMARK   37  A    between atoms: _85  and  _88
REMARK   38  A    between atoms: _88  and  _89
REMARK   39  A    between atoms: _92  and  _94
REMARK   40  A    between atoms: _94  and  _95
REMARK   41  A    between atoms: _94  and  _97
REMARK   42  A    between atoms: _97  and  _98
REMARK   43  A    between atoms: _101  and  _103
REMARK   44  A    between atoms: _103  and  _104
REMARK   45  A    between atoms: _103  and  _106
REMARK   46  A    between atoms: _109  and  _111
REMARK   47  A    between atoms: _111  and  _112
REMARK   48  A    between atoms: _111  and  _114
REMARK   49  A    between atoms: _115  and  _116
REMARK   50  A    between atoms: _116  and  _117
REMARK   51  A    between atoms: _117  and  _118
REMARK   52  A    between atoms: _122  and  _124
REMARK   53  A    between atoms: _124  and  _125
REMARK   54  A    between atoms: _124  and  _127
REMARK   55  A    between atoms: _127  and  _128
REMARK   56  A    between atoms: _128  and  _129
REMARK   57  A    between atoms: _131  and  _133
REMARK   58  A    between atoms: _133  and  _134
REMARK   59  A    between atoms: _133  and  _136
REMARK   60  A    between atoms: _136  and  _137
REMARK   61  A    between atoms: _140  and  _142
REMARK   62  A    between atoms: _142  and  _143
REMARK   63  A    between atoms: _145  and  _147
REMARK   64  A    between atoms: _147  and  _148
REMARK   65  A    between atoms: _150  and  _152
REMARK   66  A    between atoms: _152  and  _153
REMARK   67  A    between atoms: _152  and  _155
REMARK   68  A    between atoms: _155  and  _156
REMARK   69  A    between atoms: _159  and  _161
REMARK   70  A    between atoms: _161  and  _162
REMARK   71  A    between atoms: _164  and  _166
REMARK   72  A    between atoms: _166  and  _167
REMARK   73  A    between atoms: _169  and  _171
REMARK   74  A    between atoms: _171  and  _172
REMARK   75  A    between atoms: _171  and  _174
REMARK   76  A    between atoms: _174  and  _175
REMARK   77  A    between atoms: _181  and  _183
REMARK   78  A    between atoms: _183  and  _184
REMARK   79  A    between atoms: _183  and  _186
REMARK   80  A    between atoms: _186  and  _187
REMARK   81  A    between atoms: _190  and  _192
REMARK   82  A    between atoms: _192  and  _193
REMARK   83  A    between atoms: _192  and  _195
REMARK   84  A    between atoms: _198  and  _200
REMARK   85  A    between atoms: _200  and  _201
REMARK   86  A    between atoms: _200  and  _203
REMARK   87  A    between atoms: _203  and  _204
REMARK   88  A    between atoms: _207  and  _209
REMARK   89  A    between atoms: _209  and  _210
REMARK   90  A    between atoms: _209  and  _212
REMARK   91  A    between atoms: _212  and  _213
REMARK   92  A    between atoms: _217  and  _218
REMARK   93  A    between atoms: _223  and  _225
REMARK   94  A    between atoms: _225  and  _226
REMARK   95  A    between atoms: _225  and  _228
REMARK   96  A    between atoms: _231  and  _233
REMARK   97  A    between atoms: _233  and  _234
REMARK   98  A    between atoms: _233  and  _236
REMARK   99  A    between atoms: _236  and  _237
REMARK  100  A    between atoms: _242  and  _244
REMARK  101  A    between atoms: _244  and  _245
REMARK  102  A    between atoms: _244  and  _247
REMARK  103  A    between atoms: _247  and  _248
REMARK  104  A    between atoms: _251  and  _253
REMARK  105  A    between atoms: _253  and  _254
REMARK  106  A    between atoms: _253  and  _256
REMARK  107  A    between atoms: _256  and  _257
REMARK  108  A    between atoms: _260  and  _262
REMARK  109  A    between atoms: _262  and  _263
REMARK  110  A    between atoms: _265  and  _267
REMARK  111  A    between atoms: _267  and  _268
REMARK  112  A    between atoms: _267  and  _270
REMARK  113  A    between atoms: _270  and  _271
REMARK  114  A    between atoms: _271  and  _272
REMARK  115  A    between atoms: _272  and  _273
REMARK  116  A    between atoms: _282  and  _284
REMARK  117  A    between atoms: _284  and  _285
REMARK  118  A    between atoms: _284  and  _287
REMARK  119  A    between atoms: _287  and  _288
REMARK  120  A    between atoms: _293  and  _295
REMARK  121  A    between atoms: _295  and  _296
REMARK  122  A    between atoms: _295  and  _298
REMARK  123  A    between atoms: _298  and  _299
REMARK  124  A    between atoms: _299  and  _300
REMARK  125  A    between atoms: _300  and  _301
REMARK  126  A    between atoms: _310  and  _312
REMARK  127  A    between atoms: _312  and  _313
REMARK  128  A    between atoms: _312  and  _315
REMARK  129  A    between atoms: _315  and  _316
REMARK  130  A    between atoms: _319  and  _321
REMARK  131  A    between atoms: _321  and  _322
REMARK  132  A    between atoms: _321  and  _324
REMARK  133  A    between atoms: _324  and  _325
REMARK  134  A    between atoms: _328  and  _330
REMARK  135  A    between atoms: _330  and  _331
REMARK  136  A    between atoms: _330  and  _333
REMARK  137  A    between atoms: _333  and  _334
REMARK  138  A    between atoms: _337  and  _339
REMARK  139  A    between atoms: _339  and  _340
REMARK  140  A    between atoms: _339  and  _342
REMARK  141  A    between atoms: _342  and  _343
REMARK  142  A    between atoms: _346  and  _348
REMARK  143  A    between atoms: _348  and  _349
REMARK  144  A    between atoms: _351  and  _353
REMARK  145  A    between atoms: _353  and  _354
REMARK  146  A    between atoms: _357  and  _359
REMARK  147  A    between atoms: _359  and  _360
REMARK  148  A    between atoms: _359  and  _362
REMARK  149  A    between atoms: _362  and  _363
REMARK  150  A    between atoms: _366  and  _368
REMARK  151  A    between atoms: _368  and  _369
REMARK  152  A    between atoms: _368  and  _371
REMARK  153  A    between atoms: _371  and  _372
REMARK  154  A    between atoms: _375  and  _377
REMARK  155  A    between atoms: _377  and  _378
REMARK  156  A    between atoms: _377  and  _380
REMARK  157  A    between atoms: _380  and  _381
REMARK  158  A    between atoms: _384  and  _386
REMARK  159  A    between atoms: _386  and  _387
REMARK  160  A    between atoms: _386  and  _389
REMARK  161  A    between atoms: _392  and  _394
REMARK  162  A    between atoms: _394  and  _395
REMARK  163  A    between atoms: _394  and  _397
REMARK  164  A    between atoms: _397  and  _398
REMARK  165  A    between atoms: _401  and  _403
REMARK  166  A    between atoms: _403  and  _404
REMARK  167  A    between atoms: _403  and  _406
REMARK  168  A    between atoms: _406  and  _407
REMARK  169  A    between atoms: _407  and  _408
REMARK  170  A    between atoms: _408  and  _409
REMARK  171  A    between atoms: _409  and  _410
REMARK  172  A    between atoms: _414  and  _416
REMARK  173  A    between atoms: _416  and  _417
REMARK  174  A    between atoms: _416  and  _419
REMARK  175  A    between atoms: _419  and  _420
REMARK  176  A    between atoms: _420  and  _421
REMARK  177  A    between atoms: _423  and  _425
REMARK  178  A    between atoms: _425  and  _426
REMARK  179  A    between atoms: _425  and  _428
REMARK  180  A    between atoms: _428  and  _429
REMARK  181  A    between atoms: _432  and  _434
REMARK  182  A    between atoms: _434  and  _435
REMARK  183  A    between atoms: _437  and  _439
REMARK  184  A    between atoms: _439  and  _440
REMARK  185  A    between atoms: _442  and  _444
REMARK  186  A    between atoms: _444  and  _445
REMARK  187  A    between atoms: _444  and  _447
REMARK  188  A    between atoms: _447  and  _448
REMARK  189  A    between atoms: _451  and  _453
REMARK  190  A    between atoms: _453  and  _454
REMARK  191  A    between atoms: _456  and  _458
REMARK  192  A    between atoms: _458  and  _459
REMARK  193  A    between atoms: _461  and  _463
REMARK  194  A    between atoms: _463  and  _464
REMARK  195  A    between atoms: _463  and  _466
REMARK  196  A    between atoms: _466  and  _467
REMARK  197  A    between atoms: _473  and  _475
REMARK  198  A    between atoms: _475  and  _476
REMARK  199  A    between atoms: _475  and  _478
REMARK  200  A    between atoms: _478  and  _479
REMARK  201  A    between atoms: _482  and  _484
REMARK  202  A    between atoms: _484  and  _485
REMARK  203  A    between atoms: _484  and  _487
REMARK  204  A    between atoms: _490  and  _492
REMARK  205  A    between atoms: _492  and  _493
REMARK  206  A    between atoms: _492  and  _495
REMARK  207  A    between atoms: _495  and  _496
REMARK  208  A    between atoms: _499  and  _501
REMARK  209  A    between atoms: _501  and  _502
REMARK  210  A    between atoms: _501  and  _504
REMARK  211  A    between atoms: _504  and  _505
REMARK  212  A    between atoms: _509  and  _510
REMARK  213  A    between atoms: _515  and  _517
REMARK  214  A    between atoms: _517  and  _518
REMARK  215  A    between atoms: _517  and  _520
REMARK  216  A    between atoms: _523  and  _525
REMARK  217  A    between atoms: _525  and  _526
REMARK  218  A    between atoms: _525  and  _528
REMARK  219  A    between atoms: _528  and  _529
REMARK  220  A    between atoms: _534  and  _536
REMARK  221  A    between atoms: _536  and  _537
REMARK  222  A    between atoms: _536  and  _539
REMARK  223  A    between atoms: _539  and  _540
REMARK  224  A    between atoms: _543  and  _545
REMARK  225  A    between atoms: _545  and  _546
REMARK  226  A    between atoms: _545  and  _548
REMARK  227  A    between atoms: _548  and  _549
REMARK  228  A    between atoms: _552  and  _554
REMARK  229  A    between atoms: _554  and  _555
REMARK  230  A    between atoms: _557  and  _559
REMARK  231  A    between atoms: _559  and  _560
REMARK  232  A    between atoms: _559  and  _562
REMARK  233  A    between atoms: _562  and  _563
REMARK  234  A    between atoms: _563  and  _564
REMARK  235  A    between atoms: _564  and  _565
REMARK  236  A    between atoms: _574  and  _576
REMARK  237  A    between atoms: _576  and  _577
REMARK  238  A    between atoms: _576  and  _579
REMARK  239  A    between atoms: _579  and  _580
REMARK                            x       y       z     vdW  Elec       q    Type
REMARK                         _______ _______ _______ _____ _____    ______ ____
ROOT
ATOM      1  O   HOH     1      18.386  37.448  17.009  0.00  0.00    +0.000 OA
ENDROOT
TORSDOF 0
REMARK  Name = ../refined-set-2016/1sdu/1sdu_pocket.pdb
REMARK  239 active torsions:
REMARK  status: ('A' for Active; 'I' for Inactive)
REMARK    1  A    between atoms: _1  and  _3
REMARK    2  A    between atoms: _3  and  _4
REMARK    3  A    between atoms: _3  and  _6
REMARK    4  A    between atoms: _6  and  _7
REMARK    5  A    between atoms: _7  and  _8
REMARK    6  A    between atoms: _8  and  _9
REMARK    7  A    between atoms: _18  and  _20
REMARK    8  A    between atoms: _20  and  _21
REMARK    9  A    between atoms: _20  and  _23
REMARK   10  A    between atoms: _23  and  _24
REMARK   11  A    between atoms: _27  and  _29
REMARK   12  A    between atoms: _29  and  _30
REMARK   13  A    between atoms: _29  and  _32
REMARK   14  A    between atoms: _32  and  _33
REMARK   15  A    between atoms: _36  and  _38
REMARK   16  A    between atoms: _38  and  _39
REMARK   17  A    between atoms: _38  and  _41
REMARK   18  A    between atoms: _41  and  _42
REMARK   19  A    between atoms: _45  and  _47
REMARK   20  A    between atoms: _47  and  _48
REMARK   21  A    between atoms: _47  and  _50
REMARK   22  A    between atoms: _50  and  _51
REMARK   23  A    between atoms: _54  and  _56
REMARK   24  A    between atoms: _56  and  _57
REMARK   25  A    between atoms: _56  and  _59
REMARK   26  A    between atoms: _59  and  _60
REMARK   27  A    between atoms: _63  and  _65
REMARK   28  A    between atoms: _65  and  _66
REMARK   29  A    between atoms: _68  and  _70
REMARK   30  A    between atoms: _70  and  _71
REMARK   31  A    between atoms: _74  and  _76
REMARK   32  A    between atoms: _76  and  _77
REMARK   33  A    between atoms: _76  and  _79
REMARK   34  A    between atoms: _79  and  _80
REMARK   35  A    between atoms: _83  and  _85
REMARK   36  A    between atoms: _85  and  _86
REMARK   37  A    between atoms: _85  and  _88
REMARK   38  A    between atoms: _88  and  _89
REMARK   39  A    between atoms: _92  and  _94
REMARK   40  A    between atoms: _94  and  _95
REMARK   41  A    between atoms: _94  and  _97
REMARK   42  A    between atoms: _97  and  _98
REMARK   43  A    between atoms: _101  and  _103
REMARK   44  A    between atoms: _103  and  _104
REMARK   45  A    between atoms: _103  and  _106
REMARK   46  A    between atoms: _109  and  _111
REMARK   47  A    between atoms: _111  and  _112
REMARK   48  A    between atoms: _111  and  _114
REMARK   49  A    between atoms: _115  and  _116
REMARK   50  A    between atoms: _116  and  _117
REMARK   51  A    between atoms: _117  and  _118
REMARK   52  A    between atoms: _122  and  _124
REMARK   53  A    between atoms: _124  and  _125
REMARK   54  A    between atoms: _124  and  _127
REMARK   55  A    between atoms: _127  and  _128
REMARK   56  A    between atoms: _128  and  _129
REMARK   57  A    between atoms: _131  and  _133
REMARK   58  A    between atoms: _133  and  _134
REMARK   59  A    between atoms: _133  and  _136
REMARK   60  A    between atoms: _136  and  _137
REMARK   61  A    between atoms: _140  and  _142
REMARK   62  A    between atoms: _142  and  _143
REMARK   63  A    between atoms: _145  and  _147
REMARK   64  A    between atoms: _147  and  _148
REMARK   65  A    between atoms: _150  and  _152
REMARK   66  A    between atoms: _152  and  _153
REMARK   67  A    between atoms: _152  and  _155
REMARK   68  A    between atoms: _155  and  _156
REMARK   69  A    between atoms: _159  and  _161
REMARK   70  A    between atoms: _161  and  _162
REMARK   71  A    between atoms: _164  and  _166
REMARK   72  A    between atoms: _166  and  _167
REMARK   73  A    between atoms: _169  and  _171
REMARK   74  A    between atoms: _171  and  _172
REMARK   75  A    between atoms: _171  and  _174
REMARK   76  A    between atoms: _174  and  _175
REMARK   77  A    between atoms: _181  and  _183
REMARK   78  A    between atoms: _183  and  _184
REMARK   79  A    between atoms: _183  and  _186
REMARK   80  A    between atoms: _186  and  _187
REMARK   81  A    between atoms: _190  and  _192
REMARK   82  A    between atoms: _192  and  _193
REMARK   83  A    between atoms: _192  and  _195
REMARK   84  A    between atoms: _198  and  _200
REMARK   85  A    between atoms: _200  and  _201
REMARK   86  A    between atoms: _200  and  _203
REMARK   87  A    between atoms: _203  and  _204
REMARK   88  A    between atoms: _207  and  _209
REMARK   89  A    between atoms: _209  and  _210
REMARK   90  A    between atoms: _209  and  _212
REMARK   91  A    between atoms: _212  and  _213
REMARK   92  A    between atoms: _217  and  _218
REMARK   93  A    between atoms: _223  and  _225
REMARK   94  A    between atoms: _225  and  _226
REMARK   95  A    between atoms: _225  and  _228
REMARK   96  A    between atoms: _231  and  _233
REMARK   97  A    between atoms: _233  and  _234
REMARK   98  A    between atoms: _233  and  _236
REMARK   99  A    between atoms: _236  and  _237
REMARK  100  A    between atoms: _242  and  _244
REMARK  101  A    between atoms: _244  and  _245
REMARK  102  A    between atoms: _244  and  _247
REMARK  103  A    between atoms: _247  and  _248
REMARK  104  A    between atoms: _251  and  _253
REMARK  105  A    between atoms: _253  and  _254
REMARK  106  A    between atoms: _253  and  _256
REMARK  107  A    between atoms: _256  and  _257
REMARK  108  A    between atoms: _260  and  _262
REMARK  109  A    between atoms: _262  and  _263
REMARK  110  A    between atoms: _265  and  _267
REMARK  111  A    between atoms: _267  and  _268
REMARK  112  A    between atoms: _267  and  _270
REMARK  113  A    between atoms: _270  and  _271
REMARK  114  A    between atoms: _271  and  _272
REMARK  115  A    between atoms: _272  and  _273
REMARK  116  A    between atoms: _282  and  _284
REMARK  117  A    between atoms: _284  and  _285
REMARK  118  A    between atoms: _284  and  _287
REMARK  119  A    between atoms: _287  and  _288
REMARK  120  A    between atoms: _293  and  _295
REMARK  121  A    between atoms: _295  and  _296
REMARK  122  A    between atoms: _295  and  _298
REMARK  123  A    between atoms: _298  and  _299
REMARK  124  A    between atoms: _299  and  _300
REMARK  125  A    between atoms: _300  and  _301
REMARK  126  A    between atoms: _310  and  _312
REMARK  127  A    between atoms: _312  and  _313
REMARK  128  A    between atoms: _312  and  _315
REMARK  129  A    between atoms: _315  and  _316
REMARK  130  A    between atoms: _319  and  _321
REMARK  131  A    between atoms: _321  and  _322
REMARK  132  A    between atoms: _321  and  _324
REMARK  133  A    between atoms: _324  and  _325
REMARK  134  A    between atoms: _328  and  _330
REMARK  135  A    between atoms: _330  and  _331
REMARK  136  A    between atoms: _330  and  _333
REMARK  137  A    between atoms: _333  and  _334
REMARK  138  A    between atoms: _337  and  _339
REMARK  139  A    between atoms: _339  and  _340
REMARK  140  A    between atoms: _339  and  _342
REMARK  141  A    between atoms: _342  and  _343
REMARK  142  A    between atoms: _346  and  _348
REMARK  143  A    between atoms: _348  and  _349
REMARK  144  A    between atoms: _351  and  _353
REMARK  145  A    between atoms: _353  and  _354
REMARK  146  A    between atoms: _357  and  _359
REMARK  147  A    between atoms: _359  and  _360
REMARK  148  A    between atoms: _359  and  _362
REMARK  149  A    between atoms: _362  and  _363
REMARK  150  A    between atoms: _366  and  _368
REMARK  151  A    between atoms: _368  and  _369
REMARK  152  A    between atoms: _368  and  _371
REMARK  153  A    between atoms: _371  and  _372
REMARK  154  A    between atoms: _375  and  _377
REMARK  155  A    between atoms: _377  and  _378
REMARK  156  A    between atoms: _377  and  _380
REMARK  157  A    between atoms: _380  and  _381
REMARK  158  A    between atoms: _384  and  _386
REMARK  159  A    between atoms: _386  and  _387
REMARK  160  A    between atoms: _386  and  _389
REMARK  161  A    between atoms: _392  and  _394
REMARK  162  A    between atoms: _394  and  _395
REMARK  163  A    between atoms: _394  and  _397
REMARK  164  A    between atoms: _397  and  _398
REMARK  165  A    between atoms: _401  and  _403
REMARK  166  A    between atoms: _403  and  _404
REMARK  167  A    between atoms: _403  and  _406
REMARK  168  A    between atoms: _406  and  _407
REMARK  169  A    between atoms: _407  and  _408
REMARK  170  A    between atoms: _408  and  _409
REMARK  171  A    between atoms: _409  and  _410
REMARK  172  A    between atoms: _414  and  _416
REMARK  173  A    between atoms: _416  and  _417
REMARK  174  A    between atoms: _416  and  _419
REMARK  175  A    between atoms: _419  and  _420
REMARK  176  A    between atoms: _420  and  _421
REMARK  177  A    between atoms: _423  and  _425
REMARK  178  A    between atoms: _425  and  _426
REMARK  179  A    between atoms: _425  and  _428
REMARK  180  A    between atoms: _428  and  _429
REMARK  181  A    between atoms: _432  and  _434
REMARK  182  A    between atoms: _434  and  _435
REMARK  183  A    between atoms: _437  and  _439
REMARK  184  A    between atoms: _439  and  _440
REMARK  185  A    between atoms: _442  and  _444
REMARK  186  A    between atoms: _444  and  _445
REMARK  187  A    between atoms: _444  and  _447
REMARK  188  A    between atoms: _447  and  _448
REMARK  189  A    between atoms: _451  and  _453
REMARK  190  A    between atoms: _453  and  _454
REMARK  191  A    between atoms: _456  and  _458
REMARK  192  A    between atoms: _458  and  _459
REMARK  193  A    between atoms: _461  and  _463
REMARK  194  A    between atoms: _463  and  _464
REMARK  195  A    between atoms: _463  and  _466
REMARK  196  A    between atoms: _466  and  _467
REMARK  197  A    between atoms: _473  and  _475
REMARK  198  A    between atoms: _475  and  _476
REMARK  199  A    between atoms: _475  and  _478
REMARK  200  A    between atoms: _478  and  _479
REMARK  201  A    between atoms: _482  and  _484
REMARK  202  A    between atoms: _484  and  _485
REMARK  203  A    between atoms: _484  and  _487
REMARK  204  A    between atoms: _490  and  _492
REMARK  205  A    between atoms: _492  and  _493
REMARK  206  A    between atoms: _492  and  _495
REMARK  207  A    between atoms: _495  and  _496
REMARK  208  A    between atoms: _499  and  _501
REMARK  209  A    between atoms: _501  and  _502
REMARK  210  A    between atoms: _501  and  _504
REMARK  211  A    between atoms: _504  and  _505
REMARK  212  A    between atoms: _509  and  _510
REMARK  213  A    between atoms: _515  and  _517
REMARK  214  A    between atoms: _517  and  _518
REMARK  215  A    between atoms: _517  and  _520
REMARK  216  A    between atoms: _523  and  _525
REMARK  217  A    between atoms: _525  and  _526
REMARK  218  A    between atoms: _525  and  _528
REMARK  219  A    between atoms: _528  and  _529
REMARK  220  A    between atoms: _534  and  _536
REMARK  221  A    between atoms: _536  and  _537
REMARK  222  A    between atoms: _536  and  _539
REMARK  223  A    between atoms: _539  and  _540
REMARK  224  A    between atoms: _543  and  _545
REMARK  225  A    between atoms: _545  and  _546
REMARK  226  A    between atoms: _545  and  _548
REMARK  227  A    between atoms: _548  and  _549
REMARK  228  A    between atoms: _552  and  _554
REMARK  229  A    between atoms: _554  and  _555
REMARK  230  A    between atoms: _557  and  _559
REMARK  231  A    between atoms: _559  and  _560
REMARK  232  A    between atoms: _559  and  _562
REMARK  233  A    between atoms: _562  and  _563
REMARK  234  A    between atoms: _563  and  _564
REMARK  235  A    between atoms: _564  and  _565
REMARK  236  A    between atoms: _574  and  _576
REMARK  237  A    between atoms: _576  and  _577
REMARK  238  A    between atoms: _576  and  _579
REMARK  239  A    between atoms: _579  and  _580
REMARK                            x       y       z     vdW  Elec       q    Type
REMARK                         _______ _______ _______ _____ _____    ______ ____
ROOT
ATOM      1  O   HOH     1      10.794  37.150  22.406  0.00  0.00    +0.000 OA
ENDROOT
TORSDOF 0
REMARK  Name = ../refined-set-2016/1sdu/1sdu_pocket.pdb
REMARK  239 active torsions:
REMARK  status: ('A' for Active; 'I' for Inactive)
REMARK    1  A    between atoms: _1  and  _3
REMARK    2  A    between atoms: _3  and  _4
REMARK    3  A    between atoms: _3  and  _6
REMARK    4  A    between atoms: _6  and  _7
REMARK    5  A    between atoms: _7  and  _8
REMARK    6  A    between atoms: _8  and  _9
REMARK    7  A    between atoms: _18  and  _20
REMARK    8  A    between atoms: _20  and  _21
REMARK    9  A    between atoms: _20  and  _23
REMARK   10  A    between atoms: _23  and  _24
REMARK   11  A    between atoms: _27  and  _29
REMARK   12  A    between atoms: _29  and  _30
REMARK   13  A    between atoms: _29  and  _32
REMARK   14  A    between atoms: _32  and  _33
REMARK   15  A    between atoms: _36  and  _38
REMARK   16  A    between atoms: _38  and  _39
REMARK   17  A    between atoms: _38  and  _41
REMARK   18  A    between atoms: _41  and  _42
REMARK   19  A    between atoms: _45  and  _47
REMARK   20  A    between atoms: _47  and  _48
REMARK   21  A    between atoms: _47  and  _50
REMARK   22  A    between atoms: _50  and  _51
REMARK   23  A    between atoms: _54  and  _56
REMARK   24  A    between atoms: _56  and  _57
REMARK   25  A    between atoms: _56  and  _59
REMARK   26  A    between atoms: _59  and  _60
REMARK   27  A    between atoms: _63  and  _65
REMARK   28  A    between atoms: _65  and  _66
REMARK   29  A    between atoms: _68  and  _70
REMARK   30  A    between atoms: _70  and  _71
REMARK   31  A    between atoms: _74  and  _76
REMARK   32  A    between atoms: _76  and  _77
REMARK   33  A    between atoms: _76  and  _79
REMARK   34  A    between atoms: _79  and  _80
REMARK   35  A    between atoms: _83  and  _85
REMARK   36  A    between atoms: _85  and  _86
REMARK   37  A    between atoms: _85  and  _88
REMARK   38  A    between atoms: _88  and  _89
REMARK   39  A    between atoms: _92  and  _94
REMARK   40  A    between atoms: _94  and  _95
REMARK   41  A    between atoms: _94  and  _97
REMARK   42  A    between atoms: _97  and  _98
REMARK   43  A    between atoms: _101  and  _103
REMARK   44  A    between atoms: _103  and  _104
REMARK   45  A    between atoms: _103  and  _106
REMARK   46  A    between atoms: _109  and  _111
REMARK   47  A    between atoms: _111  and  _112
REMARK   48  A    between atoms: _111  and  _114
REMARK   49  A    between atoms: _115  and  _116
REMARK   50  A    between atoms: _116  and  _117
REMARK   51  A    between atoms: _117  and  _118
REMARK   52  A    between atoms: _122  and  _124
REMARK   53  A    between atoms: _124  and  _125
REMARK   54  A    between atoms: _124  and  _127
REMARK   55  A    between atoms: _127  and  _128
REMARK   56  A    between atoms: _128  and  _129
REMARK   57  A    between atoms: _131  and  _133
REMARK   58  A    between atoms: _133  and  _134
REMARK   59  A    between atoms: _133  and  _136
REMARK   60  A    between atoms: _136  and  _137
REMARK   61  A    between atoms: _140  and  _142
REMARK   62  A    between atoms: _142  and  _143
REMARK   63  A    between atoms: _145  and  _147
REMARK   64  A    between atoms: _147  and  _148
REMARK   65  A    between atoms: _150  and  _152
REMARK   66  A    between atoms: _152  and  _153
REMARK   67  A    between atoms: _152  and  _155
REMARK   68  A    between atoms: _155  and  _156
REMARK   69  A    between atoms: _159  and  _161
REMARK   70  A    between atoms: _161  and  _162
REMARK   71  A    between atoms: _164  and  _166
REMARK   72  A    between atoms: _166  and  _167
REMARK   73  A    between atoms: _169  and  _171
REMARK   74  A    between atoms: _171  and  _172
REMARK   75  A    between atoms: _171  and  _174
REMARK   76  A    between atoms: _174  and  _175
REMARK   77  A    between atoms: _181  and  _183
REMARK   78  A    between atoms: _183  and  _184
REMARK   79  A    between atoms: _183  and  _186
REMARK   80  A    between atoms: _186  and  _187
REMARK   81  A    between atoms: _190  and  _192
REMARK   82  A    between atoms: _192  and  _193
REMARK   83  A    between atoms: _192  and  _195
REMARK   84  A    between atoms: _198  and  _200
REMARK   85  A    between atoms: _200  and  _201
REMARK   86  A    between atoms: _200  and  _203
REMARK   87  A    between atoms: _203  and  _204
REMARK   88  A    between atoms: _207  and  _209
REMARK   89  A    between atoms: _209  and  _210
REMARK   90  A    between atoms: _209  and  _212
REMARK   91  A    between atoms: _212  and  _213
REMARK   92  A    between atoms: _217  and  _218
REMARK   93  A    between atoms: _223  and  _225
REMARK   94  A    between atoms: _225  and  _226
REMARK   95  A    between atoms: _225  and  _228
REMARK   96  A    between atoms: _231  and  _233
REMARK   97  A    between atoms: _233  and  _234
REMARK   98  A    between atoms: _233  and  _236
REMARK   99  A    between atoms: _236  and  _237
REMARK  100  A    between atoms: _242  and  _244
REMARK  101  A    between atoms: _244  and  _245
REMARK  102  A    between atoms: _244  and  _247
REMARK  103  A    between atoms: _247  and  _248
REMARK  104  A    between atoms: _251  and  _253
REMARK  105  A    between atoms: _253  and  _254
REMARK  106  A    between atoms: _253  and  _256
REMARK  107  A    between atoms: _256  and  _257
REMARK  108  A    between atoms: _260  and  _262
REMARK  109  A    between atoms: _262  and  _263
REMARK  110  A    between atoms: _265  and  _267
REMARK  111  A    between atoms: _267  and  _268
REMARK  112  A    between atoms: _267  and  _270
REMARK  113  A    between atoms: _270  and  _271
REMARK  114  A    between atoms: _271  and  _272
REMARK  115  A    between atoms: _272  and  _273
REMARK  116  A    between atoms: _282  and  _284
REMARK  117  A    between atoms: _284  and  _285
REMARK  118  A    between atoms: _284  and  _287
REMARK  119  A    between atoms: _287  and  _288
REMARK  120  A    between atoms: _293  and  _295
REMARK  121  A    between atoms: _295  and  _296
REMARK  122  A    between atoms: _295  and  _298
REMARK  123  A    between atoms: _298  and  _299
REMARK  124  A    between atoms: _299  and  _300
REMARK  125  A    between atoms: _300  and  _301
REMARK  126  A    between atoms: _310  and  _312
REMARK  127  A    between atoms: _312  and  _313
REMARK  128  A    between atoms: _312  and  _315
REMARK  129  A    between atoms: _315  and  _316
REMARK  130  A    between atoms: _319  and  _321
REMARK  131  A    between atoms: _321  and  _322
REMARK  132  A    between atoms: _321  and  _324
REMARK  133  A    between atoms: _324  and  _325
REMARK  134  A    between atoms: _328  and  _330
REMARK  135  A    between atoms: _330  and  _331
REMARK  136  A    between atoms: _330  and  _333
REMARK  137  A    between atoms: _333  and  _334
REMARK  138  A    between atoms: _337  and  _339
REMARK  139  A    between atoms: _339  and  _340
REMARK  140  A    between atoms: _339  and  _342
REMARK  141  A    between atoms: _342  and  _343
REMARK  142  A    between atoms: _346  and  _348
REMARK  143  A    between atoms: _348  and  _349
REMARK  144  A    between atoms: _351  and  _353
REMARK  145  A    between atoms: _353  and  _354
REMARK  146  A    between atoms: _357  and  _359
REMARK  147  A    between atoms: _359  and  _360
REMARK  148  A    between atoms: _359  and  _362
REMARK  149  A    between atoms: _362  and  _363
REMARK  150  A    between atoms: _366  and  _368
REMARK  151  A    between atoms: _368  and  _369
REMARK  152  A    between atoms: _368  and  _371
REMARK  153  A    between atoms: _371  and  _372
REMARK  154  A    between atoms: _375  and  _377
REMARK  155  A    between atoms: _377  and  _378
REMARK  156  A    between atoms: _377  and  _380
REMARK  157  A    between atoms: _380  and  _381
REMARK  158  A    between atoms: _384  and  _386
REMARK  159  A    between atoms: _386  and  _387
REMARK  160  A    between atoms: _386  and  _389
REMARK  161  A    between atoms: _392  and  _394
REMARK  162  A    between atoms: _394  and  _395
REMARK  163  A    between atoms: _394  and  _397
REMARK  164  A    between atoms: _397  and  _398
REMARK  165  A    between atoms: _401  and  _403
REMARK  166  A    between atoms: _403  and  _404
REMARK  167  A    between atoms: _403  and  _406
REMARK  168  A    between atoms: _406  and  _407
REMARK  169  A    between atoms: _407  and  _408
REMARK  170  A    between atoms: _408  and  _409
REMARK  171  A    between atoms: _409  and  _410
REMARK  172  A    between atoms: _414  and  _416
REMARK  173  A    between atoms: _416  and  _417
REMARK  174  A    between atoms: _416  and  _419
REMARK  175  A    between atoms: _419  and  _420
REMARK  176  A    between atoms: _420  and  _421
REMARK  177  A    between atoms: _423  and  _425
REMARK  178  A    between atoms: _425  and  _426
REMARK  179  A    between atoms: _425  and  _428
REMARK  180  A    between atoms: _428  and  _429
REMARK  181  A    between atoms: _432  and  _434
REMARK  182  A    between atoms: _434  and  _435
REMARK  183  A    between atoms: _437  and  _439
REMARK  184  A    between atoms: _439  and  _440
REMARK  185  A    between atoms: _442  and  _444
REMARK  186  A    between atoms: _444  and  _445
REMARK  187  A    between atoms: _444  and  _447
REMARK  188  A    between atoms: _447  and  _448
REMARK  189  A    between atoms: _451  and  _453
REMARK  190  A    between atoms: _453  and  _454
REMARK  191  A    between atoms: _456  and  _458
REMARK  192  A    between atoms: _458  and  _459
REMARK  193  A    between atoms: _461  and  _463
REMARK  194  A    between atoms: _463  and  _464
REMARK  195  A    between atoms: _463  and  _466
REMARK  196  A    between atoms: _466  and  _467
REMARK  197  A    between atoms: _473  and  _475
REMARK  198  A    between atoms: _475  and  _476
REMARK  199  A    between atoms: _475  and  _478
REMARK  200  A    between atoms: _478  and  _479
REMARK  201  A    between atoms: _482  and  _484
REMARK  202  A    between atoms: _484  and  _485
REMARK  203  A    between atoms: _484  and  _487
REMARK  204  A    between atoms: _490  and  _492
REMARK  205  A    between atoms: _492  and  _493
REMARK  206  A    between atoms: _492  and  _495
REMARK  207  A    between atoms: _495  and  _496
REMARK  208  A    between atoms: _499  and  _501
REMARK  209  A    between atoms: _501  and  _502
REMARK  210  A    between atoms: _501  and  _504
REMARK  211  A    between atoms: _504  and  _505
REMARK  212  A    between atoms: _509  and  _510
REMARK  213  A    between atoms: _515  and  _517
REMARK  214  A    between atoms: _517  and  _518
REMARK  215  A    between atoms: _517  and  _520
REMARK  216  A    between atoms: _523  and  _525
REMARK  217  A    between atoms: _525  and  _526
REMARK  218  A    between atoms: _525  and  _528
REMARK  219  A    between atoms: _528  and  _529
REMARK  220  A    between atoms: _534  and  _536
REMARK  221  A    between atoms: _536  and  _537
REMARK  222  A    between atoms: _536  and  _539
REMARK  223  A    between atoms: _539  and  _540
REMARK  224  A    between atoms: _543  and  _545
REMARK  225  A    between atoms: _545  and  _546
REMARK  226  A    between atoms: _545  and  _548
REMARK  227  A    between atoms: _548  and  _549
REMARK  228  A    between atoms: _552  and  _554
REMARK  229  A    between atoms: _554  and  _555
REMARK  230  A    between atoms: _557  and  _559
REMARK  231  A    between atoms: _559  and  _560
REMARK  232  A    between atoms: _559  and  _562
REMARK  233  A    between atoms: _562  and  _563
REMARK  234  A    between atoms: _563  and  _564
REMARK  235  A    between atoms: _564  and  _565
REMARK  236  A    between atoms: _574  and  _576
REMARK  237  A    between atoms: _576  and  _577
REMARK  238  A    between atoms: _576  and  _579
REMARK  239  A    between atoms: _579  and  _580
REMARK                            x       y       z     vdW  Elec       q    Type
REMARK                         _______ _______ _______ _____ _____    ______ ____
ROOT
ATOM      1  O   HOH     1      15.031  20.129  10.899  0.00  0.00    +0.000 OA
ENDROOT
TORSDOF 0
REMARK  Name = ../refined-set-2016/1sdu/1sdu_pocket.pdb
REMARK  239 active torsions:
REMARK  status: ('A' for Active; 'I' for Inactive)
REMARK    1  A    between atoms: _1  and  _3
REMARK    2  A    between atoms: _3  and  _4
REMARK    3  A    between atoms: _3  and  _6
REMARK    4  A    between atoms: _6  and  _7
REMARK    5  A    between atoms: _7  and  _8
REMARK    6  A    between atoms: _8  and  _9
REMARK    7  A    between atoms: _18  and  _20
REMARK    8  A    between atoms: _20  and  _21
REMARK    9  A    between atoms: _20  and  _23
REMARK   10  A    between atoms: _23  and  _24
REMARK   11  A    between atoms: _27  and  _29
REMARK   12  A    between atoms: _29  and  _30
REMARK   13  A    between atoms: _29  and  _32
REMARK   14  A    between atoms: _32  and  _33
REMARK   15  A    between atoms: _36  and  _38
REMARK   16  A    between atoms: _38  and  _39
REMARK   17  A    between atoms: _38  and  _41
REMARK   18  A    between atoms: _41  and  _42
REMARK   19  A    between atoms: _45  and  _47
REMARK   20  A    between atoms: _47  and  _48
REMARK   21  A    between atoms: _47  and  _50
REMARK   22  A    between atoms: _50  and  _51
REMARK   23  A    between atoms: _54  and  _56
REMARK   24  A    between atoms: _56  and  _57
REMARK   25  A    between atoms: _56  and  _59
REMARK   26  A    between atoms: _59  and  _60
REMARK   27  A    between atoms: _63  and  _65
REMARK   28  A    between atoms: _65  and  _66
REMARK   29  A    between atoms: _68  and  _70
REMARK   30  A    between atoms: _70  and  _71
REMARK   31  A    between atoms: _74  and  _76
REMARK   32  A    between atoms: _76  and  _77
REMARK   33  A    between atoms: _76  and  _79
REMARK   34  A    between atoms: _79  and  _80
REMARK   35  A    between atoms: _83  and  _85
REMARK   36  A    between atoms: _85  and  _86
REMARK   37  A    between atoms: _85  and  _88
REMARK   38  A    between atoms: _88  and  _89
REMARK   39  A    between atoms: _92  and  _94
REMARK   40  A    between atoms: _94  and  _95
REMARK   41  A    between atoms: _94  and  _97
REMARK   42  A    between atoms: _97  and  _98
REMARK   43  A    between atoms: _101  and  _103
REMARK   44  A    between atoms: _103  and  _104
REMARK   45  A    between atoms: _103  and  _106
REMARK   46  A    between atoms: _109  and  _111
REMARK   47  A    between atoms: _111  and  _112
REMARK   48  A    between atoms: _111  and  _114
REMARK   49  A    between atoms: _115  and  _116
REMARK   50  A    between atoms: _116  and  _117
REMARK   51  A    between atoms: _117  and  _118
REMARK   52  A    between atoms: _122  and  _124
REMARK   53  A    between atoms: _124  and  _125
REMARK   54  A    between atoms: _124  and  _127
REMARK   55  A    between atoms: _127  and  _128
REMARK   56  A    between atoms: _128  and  _129
REMARK   57  A    between atoms: _131  and  _133
REMARK   58  A    between atoms: _133  and  _134
REMARK   59  A    between atoms: _133  and  _136
REMARK   60  A    between atoms: _136  and  _137
REMARK   61  A    between atoms: _140  and  _142
REMARK   62  A    between atoms: _142  and  _143
REMARK   63  A    between atoms: _145  and  _147
REMARK   64  A    between atoms: _147  and  _148
REMARK   65  A    between atoms: _150  and  _152
REMARK   66  A    between atoms: _152  and  _153
REMARK   67  A    between atoms: _152  and  _155
REMARK   68  A    between atoms: _155  and  _156
REMARK   69  A    between atoms: _159  and  _161
REMARK   70  A    between atoms: _161  and  _162
REMARK   71  A    between atoms: _164  and  _166
REMARK   72  A    between atoms: _166  and  _167
REMARK   73  A    between atoms: _169  and  _171
REMARK   74  A    between atoms: _171  and  _172
REMARK   75  A    between atoms: _171  and  _174
REMARK   76  A    between atoms: _174  and  _175
REMARK   77  A    between atoms: _181  and  _183
REMARK   78  A    between atoms: _183  and  _184
REMARK   79  A    between atoms: _183  and  _186
REMARK   80  A    between atoms: _186  and  _187
REMARK   81  A    between atoms: _190  and  _192
REMARK   82  A    between atoms: _192  and  _193
REMARK   83  A    between atoms: _192  and  _195
REMARK   84  A    between atoms: _198  and  _200
REMARK   85  A    between atoms: _200  and  _201
REMARK   86  A    between atoms: _200  and  _203
REMARK   87  A    between atoms: _203  and  _204
REMARK   88  A    between atoms: _207  and  _209
REMARK   89  A    between atoms: _209  and  _210
REMARK   90  A    between atoms: _209  and  _212
REMARK   91  A    between atoms: _212  and  _213
REMARK   92  A    between atoms: _217  and  _218
REMARK   93  A    between atoms: _223  and  _225
REMARK   94  A    between atoms: _225  and  _226
REMARK   95  A    between atoms: _225  and  _228
REMARK   96  A    between atoms: _231  and  _233
REMARK   97  A    between atoms: _233  and  _234
REMARK   98  A    between atoms: _233  and  _236
REMARK   99  A    between atoms: _236  and  _237
REMARK  100  A    between atoms: _242  and  _244
REMARK  101  A    between atoms: _244  and  _245
REMARK  102  A    between atoms: _244  and  _247
REMARK  103  A    between atoms: _247  and  _248
REMARK  104  A    between atoms: _251  and  _253
REMARK  105  A    between atoms: _253  and  _254
REMARK  106  A    between atoms: _253  and  _256
REMARK  107  A    between atoms: _256  and  _257
REMARK  108  A    between atoms: _260  and  _262
REMARK  109  A    between atoms: _262  and  _263
REMARK  110  A    between atoms: _265  and  _267
REMARK  111  A    between atoms: _267  and  _268
REMARK  112  A    between atoms: _267  and  _270
REMARK  113  A    between atoms: _270  and  _271
REMARK  114  A    between atoms: _271  and  _272
REMARK  115  A    between atoms: _272  and  _273
REMARK  116  A    between atoms: _282  and  _284
REMARK  117  A    between atoms: _284  and  _285
REMARK  118  A    between atoms: _284  and  _287
REMARK  119  A    between atoms: _287  and  _288
REMARK  120  A    between atoms: _293  and  _295
REMARK  121  A    between atoms: _295  and  _296
REMARK  122  A    between atoms: _295  and  _298
REMARK  123  A    between atoms: _298  and  _299
REMARK  124  A    between atoms: _299  and  _300
REMARK  125  A    between atoms: _300  and  _301
REMARK  126  A    between atoms: _310  and  _312
REMARK  127  A    between atoms: _312  and  _313
REMARK  128  A    between atoms: _312  and  _315
REMARK  129  A    between atoms: _315  and  _316
REMARK  130  A    between atoms: _319  and  _321
REMARK  131  A    between atoms: _321  and  _322
REMARK  132  A    between atoms: _321  and  _324
REMARK  133  A    between atoms: _324  and  _325
REMARK  134  A    between atoms: _328  and  _330
REMARK  135  A    between atoms: _330  and  _331
REMARK  136  A    between atoms: _330  and  _333
REMARK  137  A    between atoms: _333  and  _334
REMARK  138  A    between atoms: _337  and  _339
REMARK  139  A    between atoms: _339  and  _340
REMARK  140  A    between atoms: _339  and  _342
REMARK  141  A    between atoms: _342  and  _343
REMARK  142  A    between atoms: _346  and  _348
REMARK  143  A    between atoms: _348  and  _349
REMARK  144  A    between atoms: _351  and  _353
REMARK  145  A    between atoms: _353  and  _354
REMARK  146  A    between atoms: _357  and  _359
REMARK  147  A    between atoms: _359  and  _360
REMARK  148  A    between atoms: _359  and  _362
REMARK  149  A    between atoms: _362  and  _363
REMARK  150  A    between atoms: _366  and  _368
REMARK  151  A    between atoms: _368  and  _369
REMARK  152  A    between atoms: _368  and  _371
REMARK  153  A    between atoms: _371  and  _372
REMARK  154  A    between atoms: _375  and  _377
REMARK  155  A    between atoms: _377  and  _378
REMARK  156  A    between atoms: _377  and  _380
REMARK  157  A    between atoms: _380  and  _381
REMARK  158  A    between atoms: _384  and  _386
REMARK  159  A    between atoms: _386  and  _387
REMARK  160  A    between atoms: _386  and  _389
REMARK  161  A    between atoms: _392  and  _394
REMARK  162  A    between atoms: _394  and  _395
REMARK  163  A    between atoms: _394  and  _397
REMARK  164  A    between atoms: _397  and  _398
REMARK  165  A    between atoms: _401  and  _403
REMARK  166  A    between atoms: _403  and  _404
REMARK  167  A    between atoms: _403  and  _406
REMARK  168  A    between atoms: _406  and  _407
REMARK  169  A    between atoms: _407  and  _408
REMARK  170  A    between atoms: _408  and  _409
REMARK  171  A    between atoms: _409  and  _410
REMARK  172  A    between atoms: _414  and  _416
REMARK  173  A    between atoms: _416  and  _417
REMARK  174  A    between atoms: _416  and  _419
REMARK  175  A    between atoms: _419  and  _420
REMARK  176  A    between atoms: _420  and  _421
REMARK  177  A    between atoms: _423  and  _425
REMARK  178  A    between atoms: _425  and  _426
REMARK  179  A    between atoms: _425  and  _428
REMARK  180  A    between atoms: _428  and  _429
REMARK  181  A    between atoms: _432  and  _434
REMARK  182  A    between atoms: _434  and  _435
REMARK  183  A    between atoms: _437  and  _439
REMARK  184  A    between atoms: _439  and  _440
REMARK  185  A    between atoms: _442  and  _444
REMARK  186  A    between atoms: _444  and  _445
REMARK  187  A    between atoms: _444  and  _447
REMARK  188  A    between atoms: _447  and  _448
REMARK  189  A    between atoms: _451  and  _453
REMARK  190  A    between atoms: _453  and  _454
REMARK  191  A    between atoms: _456  and  _458
REMARK  192  A    between atoms: _458  and  _459
REMARK  193  A    between atoms: _461  and  _463
REMARK  194  A    between atoms: _463  and  _464
REMARK  195  A    between atoms: _463  and  _466
REMARK  196  A    between atoms: _466  and  _467
REMARK  197  A    between atoms: _473  and  _475
REMARK  198  A    between atoms: _475  and  _476
REMARK  199  A    between atoms: _475  and  _478
REMARK  200  A    between atoms: _478  and  _479
REMARK  201  A    between atoms: _482  and  _484
REMARK  202  A    between atoms: _484  and  _485
REMARK  203  A    between atoms: _484  and  _487
REMARK  204  A    between atoms: _490  and  _492
REMARK  205  A    between atoms: _492  and  _493
REMARK  206  A    between atoms: _492  and  _495
REMARK  207  A    between atoms: _495  and  _496
REMARK  208  A    between atoms: _499  and  _501
REMARK  209  A    between atoms: _501  and  _502
REMARK  210  A    between atoms: _501  and  _504
REMARK  211  A    between atoms: _504  and  _505
REMARK  212  A    between atoms: _509  and  _510
REMARK  213  A    between atoms: _515  and  _517
REMARK  214  A    between atoms: _517  and  _518
REMARK  215  A    between atoms: _517  and  _520
REMARK  216  A    between atoms: _523  and  _525
REMARK  217  A    between atoms: _525  and  _526
REMARK  218  A    between atoms: _525  and  _528
REMARK  219  A    between atoms: _528  and  _529
REMARK  220  A    between atoms: _534  and  _536
REMARK  221  A    between atoms: _536  and  _537
REMARK  222  A    between atoms: _536  and  _539
REMARK  223  A    between atoms: _539  and  _540
REMARK  224  A    between atoms: _543  and  _545
REMARK  225  A    between atoms: _545  and  _546
REMARK  226  A    between atoms: _545  and  _548
REMARK  227  A    between atoms: _548  and  _549
REMARK  228  A    between atoms: _552  and  _554
REMARK  229  A    between atoms: _554  and  _555
REMARK  230  A    between atoms: _557  and  _559
REMARK  231  A    between atoms: _559  and  _560
REMARK  232  A    between atoms: _559  and  _562
REMARK  233  A    between atoms: _562  and  _563
REMARK  234  A    between atoms: _563  and  _564
REMARK  235  A    between atoms: _564  and  _565
REMARK  236  A    between atoms: _574  and  _576
REMARK  237  A    between atoms: _576  and  _577
REMARK  238  A    between atoms: _576  and  _579
REMARK  239  A    between atoms: _579  and  _580
REMARK                            x       y       z     vdW  Elec       q    Type
REMARK                         _______ _______ _______ _____ _____    ______ ____
ROOT
ATOM      1  O   HOH     1      21.513  18.767  10.260  0.00  0.00    +0.000 OA
ENDROOT
TORSDOF 0
REMARK  Name = ../refined-set-2016/1sdu/1sdu_pocket.pdb
REMARK  239 active torsions:
REMARK  status: ('A' for Active; 'I' for Inactive)
REMARK    1  A    between atoms: _1  and  _3
REMARK    2  A    between atoms: _3  and  _4
REMARK    3  A    between atoms: _3  and  _6
REMARK    4  A    between atoms: _6  and  _7
REMARK    5  A    between atoms: _7  and  _8
REMARK    6  A    between atoms: _8  and  _9
REMARK    7  A    between atoms: _18  and  _20
REMARK    8  A    between atoms: _20  and  _21
REMARK    9  A    between atoms: _20  and  _23
REMARK   10  A    between atoms: _23  and  _24
REMARK   11  A    between atoms: _27  and  _29
REMARK   12  A    between atoms: _29  and  _30
REMARK   13  A    between atoms: _29  and  _32
REMARK   14  A    between atoms: _32  and  _33
REMARK   15  A    between atoms: _36  and  _38
REMARK   16  A    between atoms: _38  and  _39
REMARK   17  A    between atoms: _38  and  _41
REMARK   18  A    between atoms: _41  and  _42
REMARK   19  A    between atoms: _45  and  _47
REMARK   20  A    between atoms: _47  and  _48
REMARK   21  A    between atoms: _47  and  _50
REMARK   22  A    between atoms: _50  and  _51
REMARK   23  A    between atoms: _54  and  _56
REMARK   24  A    between atoms: _56  and  _57
REMARK   25  A    between atoms: _56  and  _59
REMARK   26  A    between atoms: _59  and  _60
REMARK   27  A    between atoms: _63  and  _65
REMARK   28  A    between atoms: _65  and  _66
REMARK   29  A    between atoms: _68  and  _70
REMARK   30  A    between atoms: _70  and  _71
REMARK   31  A    between atoms: _74  and  _76
REMARK   32  A    between atoms: _76  and  _77
REMARK   33  A    between atoms: _76  and  _79
REMARK   34  A    between atoms: _79  and  _80
REMARK   35  A    between atoms: _83  and  _85
REMARK   36  A    between atoms: _85  and  _86
REMARK   37  A    between atoms: _85  and  _88
REMARK   38  A    between atoms: _88  and  _89
REMARK   39  A    between atoms: _92  and  _94
REMARK   40  A    between atoms: _94  and  _95
REMARK   41  A    between atoms: _94  and  _97
REMARK   42  A    between atoms: _97  and  _98
REMARK   43  A    between atoms: _101  and  _103
REMARK   44  A    between atoms: _103  and  _104
REMARK   45  A    between atoms: _103  and  _106
REMARK   46  A    between atoms: _109  and  _111
REMARK   47  A    between atoms: _111  and  _112
REMARK   48  A    between atoms: _111  and  _114
REMARK   49  A    between atoms: _115  and  _116
REMARK   50  A    between atoms: _116  and  _117
REMARK   51  A    between atoms: _117  and  _118
REMARK   52  A    between atoms: _122  and  _124
REMARK   53  A    between atoms: _124  and  _125
REMARK   54  A    between atoms: _124  and  _127
REMARK   55  A    between atoms: _127  and  _128
REMARK   56  A    between atoms: _128  and  _129
REMARK   57  A    between atoms: _131  and  _133
REMARK   58  A    between atoms: _133  and  _134
REMARK   59  A    between atoms: _133  and  _136
REMARK   60  A    between atoms: _136  and  _137
REMARK   61  A    between atoms: _140  and  _142
REMARK   62  A    between atoms: _142  and  _143
REMARK   63  A    between atoms: _145  and  _147
REMARK   64  A    between atoms: _147  and  _148
REMARK   65  A    between atoms: _150  and  _152
REMARK   66  A    between atoms: _152  and  _153
REMARK   67  A    between atoms: _152  and  _155
REMARK   68  A    between atoms: _155  and  _156
REMARK   69  A    between atoms: _159  and  _161
REMARK   70  A    between atoms: _161  and  _162
REMARK   71  A    between atoms: _164  and  _166
REMARK   72  A    between atoms: _166  and  _167
REMARK   73  A    between atoms: _169  and  _171
REMARK   74  A    between atoms: _171  and  _172
REMARK   75  A    between atoms: _171  and  _174
REMARK   76  A    between atoms: _174  and  _175
REMARK   77  A    between atoms: _181  and  _183
REMARK   78  A    between atoms: _183  and  _184
REMARK   79  A    between atoms: _183  and  _186
REMARK   80  A    between atoms: _186  and  _187
REMARK   81  A    between atoms: _190  and  _192
REMARK   82  A    between atoms: _192  and  _193
REMARK   83  A    between atoms: _192  and  _195
REMARK   84  A    between atoms: _198  and  _200
REMARK   85  A    between atoms: _200  and  _201
REMARK   86  A    between atoms: _200  and  _203
REMARK   87  A    between atoms: _203  and  _204
REMARK   88  A    between atoms: _207  and  _209
REMARK   89  A    between atoms: _209  and  _210
REMARK   90  A    between atoms: _209  and  _212
REMARK   91  A    between atoms: _212  and  _213
REMARK   92  A    between atoms: _217  and  _218
REMARK   93  A    between atoms: _223  and  _225
REMARK   94  A    between atoms: _225  and  _226
REMARK   95  A    between atoms: _225  and  _228
REMARK   96  A    between atoms: _231  and  _233
REMARK   97  A    between atoms: _233  and  _234
REMARK   98  A    between atoms: _233  and  _236
REMARK   99  A    between atoms: _236  and  _237
REMARK  100  A    between atoms: _242  and  _244
REMARK  101  A    between atoms: _244  and  _245
REMARK  102  A    between atoms: _244  and  _247
REMARK  103  A    between atoms: _247  and  _248
REMARK  104  A    between atoms: _251  and  _253
REMARK  105  A    between atoms: _253  and  _254
REMARK  106  A    between atoms: _253  and  _256
REMARK  107  A    between atoms: _256  and  _257
REMARK  108  A    between atoms: _260  and  _262
REMARK  109  A    between atoms: _262  and  _263
REMARK  110  A    between atoms: _265  and  _267
REMARK  111  A    between atoms: _267  and  _268
REMARK  112  A    between atoms: _267  and  _270
REMARK  113  A    between atoms: _270  and  _271
REMARK  114  A    between atoms: _271  and  _272
REMARK  115  A    between atoms: _272  and  _273
REMARK  116  A    between atoms: _282  and  _284
REMARK  117  A    between atoms: _284  and  _285
REMARK  118  A    between atoms: _284  and  _287
REMARK  119  A    between atoms: _287  and  _288
REMARK  120  A    between atoms: _293  and  _295
REMARK  121  A    between atoms: _295  and  _296
REMARK  122  A    between atoms: _295  and  _298
REMARK  123  A    between atoms: _298  and  _299
REMARK  124  A    between atoms: _299  and  _300
REMARK  125  A    between atoms: _300  and  _301
REMARK  126  A    between atoms: _310  and  _312
REMARK  127  A    between atoms: _312  and  _313
REMARK  128  A    between atoms: _312  and  _315
REMARK  129  A    between atoms: _315  and  _316
REMARK  130  A    between atoms: _319  and  _321
REMARK  131  A    between atoms: _321  and  _322
REMARK  132  A    between atoms: _321  and  _324
REMARK  133  A    between atoms: _324  and  _325
REMARK  134  A    between atoms: _328  and  _330
REMARK  135  A    between atoms: _330  and  _331
REMARK  136  A    between atoms: _330  and  _333
REMARK  137  A    between atoms: _333  and  _334
REMARK  138  A    between atoms: _337  and  _339
REMARK  139  A    between atoms: _339  and  _340
REMARK  140  A    between atoms: _339  and  _342
REMARK  141  A    between atoms: _342  and  _343
REMARK  142  A    between atoms: _346  and  _348
REMARK  143  A    between atoms: _348  and  _349
REMARK  144  A    between atoms: _351  and  _353
REMARK  145  A    between atoms: _353  and  _354
REMARK  146  A    between atoms: _357  and  _359
REMARK  147  A    between atoms: _359  and  _360
REMARK  148  A    between atoms: _359  and  _362
REMARK  149  A    between atoms: _362  and  _363
REMARK  150  A    between atoms: _366  and  _368
REMARK  151  A    between atoms: _368  and  _369
REMARK  152  A    between atoms: _368  and  _371
REMARK  153  A    between atoms: _371  and  _372
REMARK  154  A    between atoms: _375  and  _377
REMARK  155  A    between atoms: _377  and  _378
REMARK  156  A    between atoms: _377  and  _380
REMARK  157  A    between atoms: _380  and  _381
REMARK  158  A    between atoms: _384  and  _386
REMARK  159  A    between atoms: _386  and  _387
REMARK  160  A    between atoms: _386  and  _389
REMARK  161  A    between atoms: _392  and  _394
REMARK  162  A    between atoms: _394  and  _395
REMARK  163  A    between atoms: _394  and  _397
REMARK  164  A    between atoms: _397  and  _398
REMARK  165  A    between atoms: _401  and  _403
REMARK  166  A    between atoms: _403  and  _404
REMARK  167  A    between atoms: _403  and  _406
REMARK  168  A    between atoms: _406  and  _407
REMARK  169  A    between atoms: _407  and  _408
REMARK  170  A    between atoms: _408  and  _409
REMARK  171  A    between atoms: _409  and  _410
REMARK  172  A    between atoms: _414  and  _416
REMARK  173  A    between atoms: _416  and  _417
REMARK  174  A    between atoms: _416  and  _419
REMARK  175  A    between atoms: _419  and  _420
REMARK  176  A    between atoms: _420  and  _421
REMARK  177  A    between atoms: _423  and  _425
REMARK  178  A    between atoms: _425  and  _426
REMARK  179  A    between atoms: _425  and  _428
REMARK  180  A    between atoms: _428  and  _429
REMARK  181  A    between atoms: _432  and  _434
REMARK  182  A    between atoms: _434  and  _435
REMARK  183  A    between atoms: _437  and  _439
REMARK  184  A    between atoms: _439  and  _440
REMARK  185  A    between atoms: _442  and  _444
REMARK  186  A    between atoms: _444  and  _445
REMARK  187  A    between atoms: _444  and  _447
REMARK  188  A    between atoms: _447  and  _448
REMARK  189  A    between atoms: _451  and  _453
REMARK  190  A    between atoms: _453  and  _454
REMARK  191  A    between atoms: _456  and  _458
REMARK  192  A    between atoms: _458  and  _459
REMARK  193  A    between atoms: _461  and  _463
REMARK  194  A    between atoms: _463  and  _464
REMARK  195  A    between atoms: _463  and  _466
REMARK  196  A    between atoms: _466  and  _467
REMARK  197  A    between atoms: _473  and  _475
REMARK  198  A    between atoms: _475  and  _476
REMARK  199  A    between atoms: _475  and  _478
REMARK  200  A    between atoms: _478  and  _479
REMARK  201  A    between atoms: _482  and  _484
REMARK  202  A    between atoms: _484  and  _485
REMARK  203  A    between atoms: _484  and  _487
REMARK  204  A    between atoms: _490  and  _492
REMARK  205  A    between atoms: _492  and  _493
REMARK  206  A    between atoms: _492  and  _495
REMARK  207  A    between atoms: _495  and  _496
REMARK  208  A    between atoms: _499  and  _501
REMARK  209  A    between atoms: _501  and  _502
REMARK  210  A    between atoms: _501  and  _504
REMARK  211  A    between atoms: _504  and  _505
REMARK  212  A    between atoms: _509  and  _510
REMARK  213  A    between atoms: _515  and  _517
REMARK  214  A    between atoms: _517  and  _518
REMARK  215  A    between atoms: _517  and  _520
REMARK  216  A    between atoms: _523  and  _525
REMARK  217  A    between atoms: _525  and  _526
REMARK  218  A    between atoms: _525  and  _528
REMARK  219  A    between atoms: _528  and  _529
REMARK  220  A    between atoms: _534  and  _536
REMARK  221  A    between atoms: _536  and  _537
REMARK  222  A    between atoms: _536  and  _539
REMARK  223  A    between atoms: _539  and  _540
REMARK  224  A    between atoms: _543  and  _545
REMARK  225  A    between atoms: _545  and  _546
REMARK  226  A    between atoms: _545  and  _548
REMARK  227  A    between atoms: _548  and  _549
REMARK  228  A    between atoms: _552  and  _554
REMARK  229  A    between atoms: _554  and  _555
REMARK  230  A    between atoms: _557  and  _559
REMARK  231  A    between atoms: _559  and  _560
REMARK  232  A    between atoms: _559  and  _562
REMARK  233  A    between atoms: _562  and  _563
REMARK  234  A    between atoms: _563  and  _564
REMARK  235  A    between atoms: _564  and  _565
REMARK  236  A    between atoms: _574  and  _576
REMARK  237  A    between atoms: _576  and  _577
REMARK  238  A    between atoms: _576  and  _579
REMARK  239  A    between atoms: _579  and  _580
REMARK                            x       y       z     vdW  Elec       q    Type
REMARK                         _______ _______ _______ _____ _____    ______ ____
ROOT
ATOM      1  O   HOH     1      25.513  37.960   8.084  0.00  0.00    +0.000 OA
ENDROOT
TORSDOF 0
REMARK  Name = ../refined-set-2016/1sdu/1sdu_pocket.pdb
REMARK  239 active torsions:
REMARK  status: ('A' for Active; 'I' for Inactive)
REMARK    1  A    between atoms: _1  and  _3
REMARK    2  A    between atoms: _3  and  _4
REMARK    3  A    between atoms: _3  and  _6
REMARK    4  A    between atoms: _6  and  _7
REMARK    5  A    between atoms: _7  and  _8
REMARK    6  A    between atoms: _8  and  _9
REMARK    7  A    between atoms: _18  and  _20
REMARK    8  A    between atoms: _20  and  _21
REMARK    9  A    between atoms: _20  and  _23
REMARK   10  A    between atoms: _23  and  _24
REMARK   11  A    between atoms: _27  and  _29
REMARK   12  A    between atoms: _29  and  _30
REMARK   13  A    between atoms: _29  and  _32
REMARK   14  A    between atoms: _32  and  _33
REMARK   15  A    between atoms: _36  and  _38
REMARK   16  A    between atoms: _38  and  _39
REMARK   17  A    between atoms: _38  and  _41
REMARK   18  A    between atoms: _41  and  _42
REMARK   19  A    between atoms: _45  and  _47
REMARK   20  A    between atoms: _47  and  _48
REMARK   21  A    between atoms: _47  and  _50
REMARK   22  A    between atoms: _50  and  _51
REMARK   23  A    between atoms: _54  and  _56
REMARK   24  A    between atoms: _56  and  _57
REMARK   25  A    between atoms: _56  and  _59
REMARK   26  A    between atoms: _59  and  _60
REMARK   27  A    between atoms: _63  and  _65
REMARK   28  A    between atoms: _65  and  _66
REMARK   29  A    between atoms: _68  and  _70
REMARK   30  A    between atoms: _70  and  _71
REMARK   31  A    between atoms: _74  and  _76
REMARK   32  A    between atoms: _76  and  _77
REMARK   33  A    between atoms: _76  and  _79
REMARK   34  A    between atoms: _79  and  _80
REMARK   35  A    between atoms: _83  and  _85
REMARK   36  A    between atoms: _85  and  _86
REMARK   37  A    between atoms: _85  and  _88
REMARK   38  A    between atoms: _88  and  _89
REMARK   39  A    between atoms: _92  and  _94
REMARK   40  A    between atoms: _94  and  _95
REMARK   41  A    between atoms: _94  and  _97
REMARK   42  A    between atoms: _97  and  _98
REMARK   43  A    between atoms: _101  and  _103
REMARK   44  A    between atoms: _103  and  _104
REMARK   45  A    between atoms: _103  and  _106
REMARK   46  A    between atoms: _109  and  _111
REMARK   47  A    between atoms: _111  and  _112
REMARK   48  A    between atoms: _111  and  _114
REMARK   49  A    between atoms: _115  and  _116
REMARK   50  A    between atoms: _116  and  _117
REMARK   51  A    between atoms: _117  and  _118
REMARK   52  A    between atoms: _122  and  _124
REMARK   53  A    between atoms: _124  and  _125
REMARK   54  A    between atoms: _124  and  _127
REMARK   55  A    between atoms: _127  and  _128
REMARK   56  A    between atoms: _128  and  _129
REMARK   57  A    between atoms: _131  and  _133
REMARK   58  A    between atoms: _133  and  _134
REMARK   59  A    between atoms: _133  and  _136
REMARK   60  A    between atoms: _136  and  _137
REMARK   61  A    between atoms: _140  and  _142
REMARK   62  A    between atoms: _142  and  _143
REMARK   63  A    between atoms: _145  and  _147
REMARK   64  A    between atoms: _147  and  _148
REMARK   65  A    between atoms: _150  and  _152
REMARK   66  A    between atoms: _152  and  _153
REMARK   67  A    between atoms: _152  and  _155
REMARK   68  A    between atoms: _155  and  _156
REMARK   69  A    between atoms: _159  and  _161
REMARK   70  A    between atoms: _161  and  _162
REMARK   71  A    between atoms: _164  and  _166
REMARK   72  A    between atoms: _166  and  _167
REMARK   73  A    between atoms: _169  and  _171
REMARK   74  A    between atoms: _171  and  _172
REMARK   75  A    between atoms: _171  and  _174
REMARK   76  A    between atoms: _174  and  _175
REMARK   77  A    between atoms: _181  and  _183
REMARK   78  A    between atoms: _183  and  _184
REMARK   79  A    between atoms: _183  and  _186
REMARK   80  A    between atoms: _186  and  _187
REMARK   81  A    between atoms: _190  and  _192
REMARK   82  A    between atoms: _192  and  _193
REMARK   83  A    between atoms: _192  and  _195
REMARK   84  A    between atoms: _198  and  _200
REMARK   85  A    between atoms: _200  and  _201
REMARK   86  A    between atoms: _200  and  _203
REMARK   87  A    between atoms: _203  and  _204
REMARK   88  A    between atoms: _207  and  _209
REMARK   89  A    between atoms: _209  and  _210
REMARK   90  A    between atoms: _209  and  _212
REMARK   91  A    between atoms: _212  and  _213
REMARK   92  A    between atoms: _217  and  _218
REMARK   93  A    between atoms: _223  and  _225
REMARK   94  A    between atoms: _225  and  _226
REMARK   95  A    between atoms: _225  and  _228
REMARK   96  A    between atoms: _231  and  _233
REMARK   97  A    between atoms: _233  and  _234
REMARK   98  A    between atoms: _233  and  _236
REMARK   99  A    between atoms: _236  and  _237
REMARK  100  A    between atoms: _242  and  _244
REMARK  101  A    between atoms: _244  and  _245
REMARK  102  A    between atoms: _244  and  _247
REMARK  103  A    between atoms: _247  and  _248
REMARK  104  A    between atoms: _251  and  _253
REMARK  105  A    between atoms: _253  and  _254
REMARK  106  A    between atoms: _253  and  _256
REMARK  107  A    between atoms: _256  and  _257
REMARK  108  A    between atoms: _260  and  _262
REMARK  109  A    between atoms: _262  and  _263
REMARK  110  A    between atoms: _265  and  _267
REMARK  111  A    between atoms: _267  and  _268
REMARK  112  A    between atoms: _267  and  _270
REMARK  113  A    between atoms: _270  and  _271
REMARK  114  A    between atoms: _271  and  _272
REMARK  115  A    between atoms: _272  and  _273
REMARK  116  A    between atoms: _282  and  _284
REMARK  117  A    between atoms: _284  and  _285
REMARK  118  A    between atoms: _284  and  _287
REMARK  119  A    between atoms: _287  and  _288
REMARK  120  A    between atoms: _293  and  _295
REMARK  121  A    between atoms: _295  and  _296
REMARK  122  A    between atoms: _295  and  _298
REMARK  123  A    between atoms: _298  and  _299
REMARK  124  A    between atoms: _299  and  _300
REMARK  125  A    between atoms: _300  and  _301
REMARK  126  A    between atoms: _310  and  _312
REMARK  127  A    between atoms: _312  and  _313
REMARK  128  A    between atoms: _312  and  _315
REMARK  129  A    between atoms: _315  and  _316
REMARK  130  A    between atoms: _319  and  _321
REMARK  131  A    between atoms: _321  and  _322
REMARK  132  A    between atoms: _321  and  _324
REMARK  133  A    between atoms: _324  and  _325
REMARK  134  A    between atoms: _328  and  _330
REMARK  135  A    between atoms: _330  and  _331
REMARK  136  A    between atoms: _330  and  _333
REMARK  137  A    between atoms: _333  and  _334
REMARK  138  A    between atoms: _337  and  _339
REMARK  139  A    between atoms: _339  and  _340
REMARK  140  A    between atoms: _339  and  _342
REMARK  141  A    between atoms: _342  and  _343
REMARK  142  A    between atoms: _346  and  _348
REMARK  143  A    between atoms: _348  and  _349
REMARK  144  A    between atoms: _351  and  _353
REMARK  145  A    between atoms: _353  and  _354
REMARK  146  A    between atoms: _357  and  _359
REMARK  147  A    between atoms: _359  and  _360
REMARK  148  A    between atoms: _359  and  _362
REMARK  149  A    between atoms: _362  and  _363
REMARK  150  A    between atoms: _366  and  _368
REMARK  151  A    between atoms: _368  and  _369
REMARK  152  A    between atoms: _368  and  _371
REMARK  153  A    between atoms: _371  and  _372
REMARK  154  A    between atoms: _375  and  _377
REMARK  155  A    between atoms: _377  and  _378
REMARK  156  A    between atoms: _377  and  _380
REMARK  157  A    between atoms: _380  and  _381
REMARK  158  A    between atoms: _384  and  _386
REMARK  159  A    between atoms: _386  and  _387
REMARK  160  A    between atoms: _386  and  _389
REMARK  161  A    between atoms: _392  and  _394
REMARK  162  A    between atoms: _394  and  _395
REMARK  163  A    between atoms: _394  and  _397
REMARK  164  A    between atoms: _397  and  _398
REMARK  165  A    between atoms: _401  and  _403
REMARK  166  A    between atoms: _403  and  _404
REMARK  167  A    between atoms: _403  and  _406
REMARK  168  A    between atoms: _406  and  _407
REMARK  169  A    between atoms: _407  and  _408
REMARK  170  A    between atoms: _408  and  _409
REMARK  171  A    between atoms: _409  and  _410
REMARK  172  A    between atoms: _414  and  _416
REMARK  173  A    between atoms: _416  and  _417
REMARK  174  A    between atoms: _416  and  _419
REMARK  175  A    between atoms: _419  and  _420
REMARK  176  A    between atoms: _420  and  _421
REMARK  177  A    between atoms: _423  and  _425
REMARK  178  A    between atoms: _425  and  _426
REMARK  179  A    between atoms: _425  and  _428
REMARK  180  A    between atoms: _428  and  _429
REMARK  181  A    between atoms: _432  and  _434
REMARK  182  A    between atoms: _434  and  _435
REMARK  183  A    between atoms: _437  and  _439
REMARK  184  A    between atoms: _439  and  _440
REMARK  185  A    between atoms: _442  and  _444
REMARK  186  A    between atoms: _444  and  _445
REMARK  187  A    between atoms: _444  and  _447
REMARK  188  A    between atoms: _447  and  _448
REMARK  189  A    between atoms: _451  and  _453
REMARK  190  A    between atoms: _453  and  _454
REMARK  191  A    between atoms: _456  and  _458
REMARK  192  A    between atoms: _458  and  _459
REMARK  193  A    between atoms: _461  and  _463
REMARK  194  A    between atoms: _463  and  _464
REMARK  195  A    between atoms: _463  and  _466
REMARK  196  A    between atoms: _466  and  _467
REMARK  197  A    between atoms: _473  and  _475
REMARK  198  A    between atoms: _475  and  _476
REMARK  199  A    between atoms: _475  and  _478
REMARK  200  A    between atoms: _478  and  _479
REMARK  201  A    between atoms: _482  and  _484
REMARK  202  A    between atoms: _484  and  _485
REMARK  203  A    between atoms: _484  and  _487
REMARK  204  A    between atoms: _490  and  _492
REMARK  205  A    between atoms: _492  and  _493
REMARK  206  A    between atoms: _492  and  _495
REMARK  207  A    between atoms: _495  and  _496
REMARK  208  A    between atoms: _499  and  _501
REMARK  209  A    between atoms: _501  and  _502
REMARK  210  A    between atoms: _501  and  _504
REMARK  211  A    between atoms: _504  and  _505
REMARK  212  A    between atoms: _509  and  _510
REMARK  213  A    between atoms: _515  and  _517
REMARK  214  A    between atoms: _517  and  _518
REMARK  215  A    between atoms: _517  and  _520
REMARK  216  A    between atoms: _523  and  _525
REMARK  217  A    between atoms: _525  and  _526
REMARK  218  A    between atoms: _525  and  _528
REMARK  219  A    between atoms: _528  and  _529
REMARK  220  A    between atoms: _534  and  _536
REMARK  221  A    between atoms: _536  and  _537
REMARK  222  A    between atoms: _536  and  _539
REMARK  223  A    between atoms: _539  and  _540
REMARK  224  A    between atoms: _543  and  _545
REMARK  225  A    between atoms: _545  and  _546
REMARK  226  A    between atoms: _545  and  _548
REMARK  227  A    between atoms: _548  and  _549
REMARK  228  A    between atoms: _552  and  _554
REMARK  229  A    between atoms: _554  and  _555
REMARK  230  A    between atoms: _557  and  _559
REMARK  231  A    between atoms: _559  and  _560
REMARK  232  A    between atoms: _559  and  _562
REMARK  233  A    between atoms: _562  and  _563
REMARK  234  A    between atoms: _563  and  _564
REMARK  235  A    between atoms: _564  and  _565
REMARK  236  A    between atoms: _574  and  _576
REMARK  237  A    between atoms: _576  and  _577
REMARK  238  A    between atoms: _576  and  _579
REMARK  239  A    between atoms: _579  and  _580
REMARK                            x       y       z     vdW  Elec       q    Type
REMARK                         _______ _______ _______ _____ _____    ______ ____
ROOT
ATOM      1  O   HOH     1      20.473  21.782  15.547  0.00  0.00    +0.000 OA
ENDROOT
TORSDOF 0
REMARK  Name = ../refined-set-2016/1sdu/1sdu_pocket.pdb
REMARK  239 active torsions:
REMARK  status: ('A' for Active; 'I' for Inactive)
REMARK    1  A    between atoms: _1  and  _3
REMARK    2  A    between atoms: _3  and  _4
REMARK    3  A    between atoms: _3  and  _6
REMARK    4  A    between atoms: _6  and  _7
REMARK    5  A    between atoms: _7  and  _8
REMARK    6  A    between atoms: _8  and  _9
REMARK    7  A    between atoms: _18  and  _20
REMARK    8  A    between atoms: _20  and  _21
REMARK    9  A    between atoms: _20  and  _23
REMARK   10  A    between atoms: _23  and  _24
REMARK   11  A    between atoms: _27  and  _29
REMARK   12  A    between atoms: _29  and  _30
REMARK   13  A    between atoms: _29  and  _32
REMARK   14  A    between atoms: _32  and  _33
REMARK   15  A    between atoms: _36  and  _38
REMARK   16  A    between atoms: _38  and  _39
REMARK   17  A    between atoms: _38  and  _41
REMARK   18  A    between atoms: _41  and  _42
REMARK   19  A    between atoms: _45  and  _47
REMARK   20  A    between atoms: _47  and  _48
REMARK   21  A    between atoms: _47  and  _50
REMARK   22  A    between atoms: _50  and  _51
REMARK   23  A    between atoms: _54  and  _56
REMARK   24  A    between atoms: _56  and  _57
REMARK   25  A    between atoms: _56  and  _59
REMARK   26  A    between atoms: _59  and  _60
REMARK   27  A    between atoms: _63  and  _65
REMARK   28  A    between atoms: _65  and  _66
REMARK   29  A    between atoms: _68  and  _70
REMARK   30  A    between atoms: _70  and  _71
REMARK   31  A    between atoms: _74  and  _76
REMARK   32  A    between atoms: _76  and  _77
REMARK   33  A    between atoms: _76  and  _79
REMARK   34  A    between atoms: _79  and  _80
REMARK   35  A    between atoms: _83  and  _85
REMARK   36  A    between atoms: _85  and  _86
REMARK   37  A    between atoms: _85  and  _88
REMARK   38  A    between atoms: _88  and  _89
REMARK   39  A    between atoms: _92  and  _94
REMARK   40  A    between atoms: _94  and  _95
REMARK   41  A    between atoms: _94  and  _97
REMARK   42  A    between atoms: _97  and  _98
REMARK   43  A    between atoms: _101  and  _103
REMARK   44  A    between atoms: _103  and  _104
REMARK   45  A    between atoms: _103  and  _106
REMARK   46  A    between atoms: _109  and  _111
REMARK   47  A    between atoms: _111  and  _112
REMARK   48  A    between atoms: _111  and  _114
REMARK   49  A    between atoms: _115  and  _116
REMARK   50  A    between atoms: _116  and  _117
REMARK   51  A    between atoms: _117  and  _118
REMARK   52  A    between atoms: _122  and  _124
REMARK   53  A    between atoms: _124  and  _125
REMARK   54  A    between atoms: _124  and  _127
REMARK   55  A    between atoms: _127  and  _128
REMARK   56  A    between atoms: _128  and  _129
REMARK   57  A    between atoms: _131  and  _133
REMARK   58  A    between atoms: _133  and  _134
REMARK   59  A    between atoms: _133  and  _136
REMARK   60  A    between atoms: _136  and  _137
REMARK   61  A    between atoms: _140  and  _142
REMARK   62  A    between atoms: _142  and  _143
REMARK   63  A    between atoms: _145  and  _147
REMARK   64  A    between atoms: _147  and  _148
REMARK   65  A    between atoms: _150  and  _152
REMARK   66  A    between atoms: _152  and  _153
REMARK   67  A    between atoms: _152  and  _155
REMARK   68  A    between atoms: _155  and  _156
REMARK   69  A    between atoms: _159  and  _161
REMARK   70  A    between atoms: _161  and  _162
REMARK   71  A    between atoms: _164  and  _166
REMARK   72  A    between atoms: _166  and  _167
REMARK   73  A    between atoms: _169  and  _171
REMARK   74  A    between atoms: _171  and  _172
REMARK   75  A    between atoms: _171  and  _174
REMARK   76  A    between atoms: _174  and  _175
REMARK   77  A    between atoms: _181  and  _183
REMARK   78  A    between atoms: _183  and  _184
REMARK   79  A    between atoms: _183  and  _186
REMARK   80  A    between atoms: _186  and  _187
REMARK   81  A    between atoms: _190  and  _192
REMARK   82  A    between atoms: _192  and  _193
REMARK   83  A    between atoms: _192  and  _195
REMARK   84  A    between atoms: _198  and  _200
REMARK   85  A    between atoms: _200  and  _201
REMARK   86  A    between atoms: _200  and  _203
REMARK   87  A    between atoms: _203  and  _204
REMARK   88  A    between atoms: _207  and  _209
REMARK   89  A    between atoms: _209  and  _210
REMARK   90  A    between atoms: _209  and  _212
REMARK   91  A    between atoms: _212  and  _213
REMARK   92  A    between atoms: _217  and  _218
REMARK   93  A    between atoms: _223  and  _225
REMARK   94  A    between atoms: _225  and  _226
REMARK   95  A    between atoms: _225  and  _228
REMARK   96  A    between atoms: _231  and  _233
REMARK   97  A    between atoms: _233  and  _234
REMARK   98  A    between atoms: _233  and  _236
REMARK   99  A    between atoms: _236  and  _237
REMARK  100  A    between atoms: _242  and  _244
REMARK  101  A    between atoms: _244  and  _245
REMARK  102  A    between atoms: _244  and  _247
REMARK  103  A    between atoms: _247  and  _248
REMARK  104  A    between atoms: _251  and  _253
REMARK  105  A    between atoms: _253  and  _254
REMARK  106  A    between atoms: _253  and  _256
REMARK  107  A    between atoms: _256  and  _257
REMARK  108  A    between atoms: _260  and  _262
REMARK  109  A    between atoms: _262  and  _263
REMARK  110  A    between atoms: _265  and  _267
REMARK  111  A    between atoms: _267  and  _268
REMARK  112  A    between atoms: _267  and  _270
REMARK  113  A    between atoms: _270  and  _271
REMARK  114  A    between atoms: _271  and  _272
REMARK  115  A    between atoms: _272  and  _273
REMARK  116  A    between atoms: _282  and  _284
REMARK  117  A    between atoms: _284  and  _285
REMARK  118  A    between atoms: _284  and  _287
REMARK  119  A    between atoms: _287  and  _288
REMARK  120  A    between atoms: _293  and  _295
REMARK  121  A    between atoms: _295  and  _296
REMARK  122  A    between atoms: _295  and  _298
REMARK  123  A    between atoms: _298  and  _299
REMARK  124  A    between atoms: _299  and  _300
REMARK  125  A    between atoms: _300  and  _301
REMARK  126  A    between atoms: _310  and  _312
REMARK  127  A    between atoms: _312  and  _313
REMARK  128  A    between atoms: _312  and  _315
REMARK  129  A    between atoms: _315  and  _316
REMARK  130  A    between atoms: _319  and  _321
REMARK  131  A    between atoms: _321  and  _322
REMARK  132  A    between atoms: _321  and  _324
REMARK  133  A    between atoms: _324  and  _325
REMARK  134  A    between atoms: _328  and  _330
REMARK  135  A    between atoms: _330  and  _331
REMARK  136  A    between atoms: _330  and  _333
REMARK  137  A    between atoms: _333  and  _334
REMARK  138  A    between atoms: _337  and  _339
REMARK  139  A    between atoms: _339  and  _340
REMARK  140  A    between atoms: _339  and  _342
REMARK  141  A    between atoms: _342  and  _343
REMARK  142  A    between atoms: _346  and  _348
REMARK  143  A    between atoms: _348  and  _349
REMARK  144  A    between atoms: _351  and  _353
REMARK  145  A    between atoms: _353  and  _354
REMARK  146  A    between atoms: _357  and  _359
REMARK  147  A    between atoms: _359  and  _360
REMARK  148  A    between atoms: _359  and  _362
REMARK  149  A    between atoms: _362  and  _363
REMARK  150  A    between atoms: _366  and  _368
REMARK  151  A    between atoms: _368  and  _369
REMARK  152  A    between atoms: _368  and  _371
REMARK  153  A    between atoms: _371  and  _372
REMARK  154  A    between atoms: _375  and  _377
REMARK  155  A    between atoms: _377  and  _378
REMARK  156  A    between atoms: _377  and  _380
REMARK  157  A    between atoms: _380  and  _381
REMARK  158  A    between atoms: _384  and  _386
REMARK  159  A    between atoms: _386  and  _387
REMARK  160  A    between atoms: _386  and  _389
REMARK  161  A    between atoms: _392  and  _394
REMARK  162  A    between atoms: _394  and  _395
REMARK  163  A    between atoms: _394  and  _397
REMARK  164  A    between atoms: _397  and  _398
REMARK  165  A    between atoms: _401  and  _403
REMARK  166  A    between atoms: _403  and  _404
REMARK  167  A    between atoms: _403  and  _406
REMARK  168  A    between atoms: _406  and  _407
REMARK  169  A    between atoms: _407  and  _408
REMARK  170  A    between atoms: _408  and  _409
REMARK  171  A    between atoms: _409  and  _410
REMARK  172  A    between atoms: _414  and  _416
REMARK  173  A    between atoms: _416  and  _417
REMARK  174  A    between atoms: _416  and  _419
REMARK  175  A    between atoms: _419  and  _420
REMARK  176  A    between atoms: _420  and  _421
REMARK  177  A    between atoms: _423  and  _425
REMARK  178  A    between atoms: _425  and  _426
REMARK  179  A    between atoms: _425  and  _428
REMARK  180  A    between atoms: _428  and  _429
REMARK  181  A    between atoms: _432  and  _434
REMARK  182  A    between atoms: _434  and  _435
REMARK  183  A    between atoms: _437  and  _439
REMARK  184  A    between atoms: _439  and  _440
REMARK  185  A    between atoms: _442  and  _444
REMARK  186  A    between atoms: _444  and  _445
REMARK  187  A    between atoms: _444  and  _447
REMARK  188  A    between atoms: _447  and  _448
REMARK  189  A    between atoms: _451  and  _453
REMARK  190  A    between atoms: _453  and  _454
REMARK  191  A    between atoms: _456  and  _458
REMARK  192  A    between atoms: _458  and  _459
REMARK  193  A    between atoms: _461  and  _463
REMARK  194  A    between atoms: _463  and  _464
REMARK  195  A    between atoms: _463  and  _466
REMARK  196  A    between atoms: _466  and  _467
REMARK  197  A    between atoms: _473  and  _475
REMARK  198  A    between atoms: _475  and  _476
REMARK  199  A    between atoms: _475  and  _478
REMARK  200  A    between atoms: _478  and  _479
REMARK  201  A    between atoms: _482  and  _484
REMARK  202  A    between atoms: _484  and  _485
REMARK  203  A    between atoms: _484  and  _487
REMARK  204  A    between atoms: _490  and  _492
REMARK  205  A    between atoms: _492  and  _493
REMARK  206  A    between atoms: _492  and  _495
REMARK  207  A    between atoms: _495  and  _496
REMARK  208  A    between atoms: _499  and  _501
REMARK  209  A    between atoms: _501  and  _502
REMARK  210  A    between atoms: _501  and  _504
REMARK  211  A    between atoms: _504  and  _505
REMARK  212  A    between atoms: _509  and  _510
REMARK  213  A    between atoms: _515  and  _517
REMARK  214  A    between atoms: _517  and  _518
REMARK  215  A    between atoms: _517  and  _520
REMARK  216  A    between atoms: _523  and  _525
REMARK  217  A    between atoms: _525  and  _526
REMARK  218  A    between atoms: _525  and  _528
REMARK  219  A    between atoms: _528  and  _529
REMARK  220  A    between atoms: _534  and  _536
REMARK  221  A    between atoms: _536  and  _537
REMARK  222  A    between atoms: _536  and  _539
REMARK  223  A    between atoms: _539  and  _540
REMARK  224  A    between atoms: _543  and  _545
REMARK  225  A    between atoms: _545  and  _546
REMARK  226  A    between atoms: _545  and  _548
REMARK  227  A    between atoms: _548  and  _549
REMARK  228  A    between atoms: _552  and  _554
REMARK  229  A    between atoms: _554  and  _555
REMARK  230  A    between atoms: _557  and  _559
REMARK  231  A    between atoms: _559  and  _560
REMARK  232  A    between atoms: _559  and  _562
REMARK  233  A    between atoms: _562  and  _563
REMARK  234  A    between atoms: _563  and  _564
REMARK  235  A    between atoms: _564  and  _565
REMARK  236  A    between atoms: _574  and  _576
REMARK  237  A    between atoms: _576  and  _577
REMARK  238  A    between atoms: _576  and  _579
REMARK  239  A    between atoms: _579  and  _580
REMARK                            x       y       z     vdW  Elec       q    Type
REMARK                         _______ _______ _______ _____ _____    ______ ____
ROOT
ATOM      1  O   HOH     1      31.593  23.415  12.043  0.00  0.00    +0.000 OA
ENDROOT
TORSDOF 0
REMARK  Name = ../refined-set-2016/1sdu/1sdu_pocket.pdb
REMARK  239 active torsions:
REMARK  status: ('A' for Active; 'I' for Inactive)
REMARK    1  A    between atoms: _1  and  _3
REMARK    2  A    between atoms: _3  and  _4
REMARK    3  A    between atoms: _3  and  _6
REMARK    4  A    between atoms: _6  and  _7
REMARK    5  A    between atoms: _7  and  _8
REMARK    6  A    between atoms: _8  and  _9
REMARK    7  A    between atoms: _18  and  _20
REMARK    8  A    between atoms: _20  and  _21
REMARK    9  A    between atoms: _20  and  _23
REMARK   10  A    between atoms: _23  and  _24
REMARK   11  A    between atoms: _27  and  _29
REMARK   12  A    between atoms: _29  and  _30
REMARK   13  A    between atoms: _29  and  _32
REMARK   14  A    between atoms: _32  and  _33
REMARK   15  A    between atoms: _36  and  _38
REMARK   16  A    between atoms: _38  and  _39
REMARK   17  A    between atoms: _38  and  _41
REMARK   18  A    between atoms: _41  and  _42
REMARK   19  A    between atoms: _45  and  _47
REMARK   20  A    between atoms: _47  and  _48
REMARK   21  A    between atoms: _47  and  _50
REMARK   22  A    between atoms: _50  and  _51
REMARK   23  A    between atoms: _54  and  _56
REMARK   24  A    between atoms: _56  and  _57
REMARK   25  A    between atoms: _56  and  _59
REMARK   26  A    between atoms: _59  and  _60
REMARK   27  A    between atoms: _63  and  _65
REMARK   28  A    between atoms: _65  and  _66
REMARK   29  A    between atoms: _68  and  _70
REMARK   30  A    between atoms: _70  and  _71
REMARK   31  A    between atoms: _74  and  _76
REMARK   32  A    between atoms: _76  and  _77
REMARK   33  A    between atoms: _76  and  _79
REMARK   34  A    between atoms: _79  and  _80
REMARK   35  A    between atoms: _83  and  _85
REMARK   36  A    between atoms: _85  and  _86
REMARK   37  A    between atoms: _85  and  _88
REMARK   38  A    between atoms: _88  and  _89
REMARK   39  A    between atoms: _92  and  _94
REMARK   40  A    between atoms: _94  and  _95
REMARK   41  A    between atoms: _94  and  _97
REMARK   42  A    between atoms: _97  and  _98
REMARK   43  A    between atoms: _101  and  _103
REMARK   44  A    between atoms: _103  and  _104
REMARK   45  A    between atoms: _103  and  _106
REMARK   46  A    between atoms: _109  and  _111
REMARK   47  A    between atoms: _111  and  _112
REMARK   48  A    between atoms: _111  and  _114
REMARK   49  A    between atoms: _115  and  _116
REMARK   50  A    between atoms: _116  and  _117
REMARK   51  A    between atoms: _117  and  _118
REMARK   52  A    between atoms: _122  and  _124
REMARK   53  A    between atoms: _124  and  _125
REMARK   54  A    between atoms: _124  and  _127
REMARK   55  A    between atoms: _127  and  _128
REMARK   56  A    between atoms: _128  and  _129
REMARK   57  A    between atoms: _131  and  _133
REMARK   58  A    between atoms: _133  and  _134
REMARK   59  A    between atoms: _133  and  _136
REMARK   60  A    between atoms: _136  and  _137
REMARK   61  A    between atoms: _140  and  _142
REMARK   62  A    between atoms: _142  and  _143
REMARK   63  A    between atoms: _145  and  _147
REMARK   64  A    between atoms: _147  and  _148
REMARK   65  A    between atoms: _150  and  _152
REMARK   66  A    between atoms: _152  and  _153
REMARK   67  A    between atoms: _152  and  _155
REMARK   68  A    between atoms: _155  and  _156
REMARK   69  A    between atoms: _159  and  _161
REMARK   70  A    between atoms: _161  and  _162
REMARK   71  A    between atoms: _164  and  _166
REMARK   72  A    between atoms: _166  and  _167
REMARK   73  A    between atoms: _169  and  _171
REMARK   74  A    between atoms: _171  and  _172
REMARK   75  A    between atoms: _171  and  _174
REMARK   76  A    between atoms: _174  and  _175
REMARK   77  A    between atoms: _181  and  _183
REMARK   78  A    between atoms: _183  and  _184
REMARK   79  A    between atoms: _183  and  _186
REMARK   80  A    between atoms: _186  and  _187
REMARK   81  A    between atoms: _190  and  _192
REMARK   82  A    between atoms: _192  and  _193
REMARK   83  A    between atoms: _192  and  _195
REMARK   84  A    between atoms: _198  and  _200
REMARK   85  A    between atoms: _200  and  _201
REMARK   86  A    between atoms: _200  and  _203
REMARK   87  A    between atoms: _203  and  _204
REMARK   88  A    between atoms: _207  and  _209
REMARK   89  A    between atoms: _209  and  _210
REMARK   90  A    between atoms: _209  and  _212
REMARK   91  A    between atoms: _212  and  _213
REMARK   92  A    between atoms: _217  and  _218
REMARK   93  A    between atoms: _223  and  _225
REMARK   94  A    between atoms: _225  and  _226
REMARK   95  A    between atoms: _225  and  _228
REMARK   96  A    between atoms: _231  and  _233
REMARK   97  A    between atoms: _233  and  _234
REMARK   98  A    between atoms: _233  and  _236
REMARK   99  A    between atoms: _236  and  _237
REMARK  100  A    between atoms: _242  and  _244
REMARK  101  A    between atoms: _244  and  _245
REMARK  102  A    between atoms: _244  and  _247
REMARK  103  A    between atoms: _247  and  _248
REMARK  104  A    between atoms: _251  and  _253
REMARK  105  A    between atoms: _253  and  _254
REMARK  106  A    between atoms: _253  and  _256
REMARK  107  A    between atoms: _256  and  _257
REMARK  108  A    between atoms: _260  and  _262
REMARK  109  A    between atoms: _262  and  _263
REMARK  110  A    between atoms: _265  and  _267
REMARK  111  A    between atoms: _267  and  _268
REMARK  112  A    between atoms: _267  and  _270
REMARK  113  A    between atoms: _270  and  _271
REMARK  114  A    between atoms: _271  and  _272
REMARK  115  A    between atoms: _272  and  _273
REMARK  116  A    between atoms: _282  and  _284
REMARK  117  A    between atoms: _284  and  _285
REMARK  118  A    between atoms: _284  and  _287
REMARK  119  A    between atoms: _287  and  _288
REMARK  120  A    between atoms: _293  and  _295
REMARK  121  A    between atoms: _295  and  _296
REMARK  122  A    between atoms: _295  and  _298
REMARK  123  A    between atoms: _298  and  _299
REMARK  124  A    between atoms: _299  and  _300
REMARK  125  A    between atoms: _300  and  _301
REMARK  126  A    between atoms: _310  and  _312
REMARK  127  A    between atoms: _312  and  _313
REMARK  128  A    between atoms: _312  and  _315
REMARK  129  A    between atoms: _315  and  _316
REMARK  130  A    between atoms: _319  and  _321
REMARK  131  A    between atoms: _321  and  _322
REMARK  132  A    between atoms: _321  and  _324
REMARK  133  A    between atoms: _324  and  _325
REMARK  134  A    between atoms: _328  and  _330
REMARK  135  A    between atoms: _330  and  _331
REMARK  136  A    between atoms: _330  and  _333
REMARK  137  A    between atoms: _333  and  _334
REMARK  138  A    between atoms: _337  and  _339
REMARK  139  A    between atoms: _339  and  _340
REMARK  140  A    between atoms: _339  and  _342
REMARK  141  A    between atoms: _342  and  _343
REMARK  142  A    between atoms: _346  and  _348
REMARK  143  A    between atoms: _348  and  _349
REMARK  144  A    between atoms: _351  and  _353
REMARK  145  A    between atoms: _353  and  _354
REMARK  146  A    between atoms: _357  and  _359
REMARK  147  A    between atoms: _359  and  _360
REMARK  148  A    between atoms: _359  and  _362
REMARK  149  A    between atoms: _362  and  _363
REMARK  150  A    between atoms: _366  and  _368
REMARK  151  A    between atoms: _368  and  _369
REMARK  152  A    between atoms: _368  and  _371
REMARK  153  A    between atoms: _371  and  _372
REMARK  154  A    between atoms: _375  and  _377
REMARK  155  A    between atoms: _377  and  _378
REMARK  156  A    between atoms: _377  and  _380
REMARK  157  A    between atoms: _380  and  _381
REMARK  158  A    between atoms: _384  and  _386
REMARK  159  A    between atoms: _386  and  _387
REMARK  160  A    between atoms: _386  and  _389
REMARK  161  A    between atoms: _392  and  _394
REMARK  162  A    between atoms: _394  and  _395
REMARK  163  A    between atoms: _394  and  _397
REMARK  164  A    between atoms: _397  and  _398
REMARK  165  A    between atoms: _401  and  _403
REMARK  166  A    between atoms: _403  and  _404
REMARK  167  A    between atoms: _403  and  _406
REMARK  168  A    between atoms: _406  and  _407
REMARK  169  A    between atoms: _407  and  _408
REMARK  170  A    between atoms: _408  and  _409
REMARK  171  A    between atoms: _409  and  _410
REMARK  172  A    between atoms: _414  and  _416
REMARK  173  A    between atoms: _416  and  _417
REMARK  174  A    between atoms: _416  and  _419
REMARK  175  A    between atoms: _419  and  _420
REMARK  176  A    between atoms: _420  and  _421
REMARK  177  A    between atoms: _423  and  _425
REMARK  178  A    between atoms: _425  and  _426
REMARK  179  A    between atoms: _425  and  _428
REMARK  180  A    between atoms: _428  and  _429
REMARK  181  A    between atoms: _432  and  _434
REMARK  182  A    between atoms: _434  and  _435
REMARK  183  A    between atoms: _437  and  _439
REMARK  184  A    between atoms: _439  and  _440
REMARK  185  A    between atoms: _442  and  _444
REMARK  186  A    between atoms: _444  and  _445
REMARK  187  A    between atoms: _444  and  _447
REMARK  188  A    between atoms: _447  and  _448
REMARK  189  A    between atoms: _451  and  _453
REMARK  190  A    between atoms: _453  and  _454
REMARK  191  A    between atoms: _456  and  _458
REMARK  192  A    between atoms: _458  and  _459
REMARK  193  A    between atoms: _461  and  _463
REMARK  194  A    between atoms: _463  and  _464
REMARK  195  A    between atoms: _463  and  _466
REMARK  196  A    between atoms: _466  and  _467
REMARK  197  A    between atoms: _473  and  _475
REMARK  198  A    between atoms: _475  and  _476
REMARK  199  A    between atoms: _475  and  _478
REMARK  200  A    between atoms: _478  and  _479
REMARK  201  A    between atoms: _482  and  _484
REMARK  202  A    between atoms: _484  and  _485
REMARK  203  A    between atoms: _484  and  _487
REMARK  204  A    between atoms: _490  and  _492
REMARK  205  A    between atoms: _492  and  _493
REMARK  206  A    between atoms: _492  and  _495
REMARK  207  A    between atoms: _495  and  _496
REMARK  208  A    between atoms: _499  and  _501
REMARK  209  A    between atoms: _501  and  _502
REMARK  210  A    between atoms: _501  and  _504
REMARK  211  A    between atoms: _504  and  _505
REMARK  212  A    between atoms: _509  and  _510
REMARK  213  A    between atoms: _515  and  _517
REMARK  214  A    between atoms: _517  and  _518
REMARK  215  A    between atoms: _517  and  _520
REMARK  216  A    between atoms: _523  and  _525
REMARK  217  A    between atoms: _525  and  _526
REMARK  218  A    between atoms: _525  and  _528
REMARK  219  A    between atoms: _528  and  _529
REMARK  220  A    between atoms: _534  and  _536
REMARK  221  A    between atoms: _536  and  _537
REMARK  222  A    between atoms: _536  and  _539
REMARK  223  A    between atoms: _539  and  _540
REMARK  224  A    between atoms: _543  and  _545
REMARK  225  A    between atoms: _545  and  _546
REMARK  226  A    between atoms: _545  and  _548
REMARK  227  A    between atoms: _548  and  _549
REMARK  228  A    between atoms: _552  and  _554
REMARK  229  A    between atoms: _554  and  _555
REMARK  230  A    between atoms: _557  and  _559
REMARK  231  A    between atoms: _559  and  _560
REMARK  232  A    between atoms: _559  and  _562
REMARK  233  A    between atoms: _562  and  _563
REMARK  234  A    between atoms: _563  and  _564
REMARK  235  A    between atoms: _564  and  _565
REMARK  236  A    between atoms: _574  and  _576
REMARK  237  A    between atoms: _576  and  _577
REMARK  238  A    between atoms: _576  and  _579
REMARK  239  A    between atoms: _579  and  _580
REMARK                            x       y       z     vdW  Elec       q    Type
REMARK                         _______ _______ _______ _____ _____    ______ ____
ROOT
ATOM      1  O   HOH     1      20.329  32.253  12.046  0.00  0.00    +0.000 OA
ENDROOT
TORSDOF 0
REMARK  Name = ../refined-set-2016/1sdu/1sdu_pocket.pdb
REMARK  239 active torsions:
REMARK  status: ('A' for Active; 'I' for Inactive)
REMARK    1  A    between atoms: _1  and  _3
REMARK    2  A    between atoms: _3  and  _4
REMARK    3  A    between atoms: _3  and  _6
REMARK    4  A    between atoms: _6  and  _7
REMARK    5  A    between atoms: _7  and  _8
REMARK    6  A    between atoms: _8  and  _9
REMARK    7  A    between atoms: _18  and  _20
REMARK    8  A    between atoms: _20  and  _21
REMARK    9  A    between atoms: _20  and  _23
REMARK   10  A    between atoms: _23  and  _24
REMARK   11  A    between atoms: _27  and  _29
REMARK   12  A    between atoms: _29  and  _30
REMARK   13  A    between atoms: _29  and  _32
REMARK   14  A    between atoms: _32  and  _33
REMARK   15  A    between atoms: _36  and  _38
REMARK   16  A    between atoms: _38  and  _39
REMARK   17  A    between atoms: _38  and  _41
REMARK   18  A    between atoms: _41  and  _42
REMARK   19  A    between atoms: _45  and  _47
REMARK   20  A    between atoms: _47  and  _48
REMARK   21  A    between atoms: _47  and  _50
REMARK   22  A    between atoms: _50  and  _51
REMARK   23  A    between atoms: _54  and  _56
REMARK   24  A    between atoms: _56  and  _57
REMARK   25  A    between atoms: _56  and  _59
REMARK   26  A    between atoms: _59  and  _60
REMARK   27  A    between atoms: _63  and  _65
REMARK   28  A    between atoms: _65  and  _66
REMARK   29  A    between atoms: _68  and  _70
REMARK   30  A    between atoms: _70  and  _71
REMARK   31  A    between atoms: _74  and  _76
REMARK   32  A    between atoms: _76  and  _77
REMARK   33  A    between atoms: _76  and  _79
REMARK   34  A    between atoms: _79  and  _80
REMARK   35  A    between atoms: _83  and  _85
REMARK   36  A    between atoms: _85  and  _86
REMARK   37  A    between atoms: _85  and  _88
REMARK   38  A    between atoms: _88  and  _89
REMARK   39  A    between atoms: _92  and  _94
REMARK   40  A    between atoms: _94  and  _95
REMARK   41  A    between atoms: _94  and  _97
REMARK   42  A    between atoms: _97  and  _98
REMARK   43  A    between atoms: _101  and  _103
REMARK   44  A    between atoms: _103  and  _104
REMARK   45  A    between atoms: _103  and  _106
REMARK   46  A    between atoms: _109  and  _111
REMARK   47  A    between atoms: _111  and  _112
REMARK   48  A    between atoms: _111  and  _114
REMARK   49  A    between atoms: _115  and  _116
REMARK   50  A    between atoms: _116  and  _117
REMARK   51  A    between atoms: _117  and  _118
REMARK   52  A    between atoms: _122  and  _124
REMARK   53  A    between atoms: _124  and  _125
REMARK   54  A    between atoms: _124  and  _127
REMARK   55  A    between atoms: _127  and  _128
REMARK   56  A    between atoms: _128  and  _129
REMARK   57  A    between atoms: _131  and  _133
REMARK   58  A    between atoms: _133  and  _134
REMARK   59  A    between atoms: _133  and  _136
REMARK   60  A    between atoms: _136  and  _137
REMARK   61  A    between atoms: _140  and  _142
REMARK   62  A    between atoms: _142  and  _143
REMARK   63  A    between atoms: _145  and  _147
REMARK   64  A    between atoms: _147  and  _148
REMARK   65  A    between atoms: _150  and  _152
REMARK   66  A    between atoms: _152  and  _153
REMARK   67  A    between atoms: _152  and  _155
REMARK   68  A    between atoms: _155  and  _156
REMARK   69  A    between atoms: _159  and  _161
REMARK   70  A    between atoms: _161  and  _162
REMARK   71  A    between atoms: _164  and  _166
REMARK   72  A    between atoms: _166  and  _167
REMARK   73  A    between atoms: _169  and  _171
REMARK   74  A    between atoms: _171  and  _172
REMARK   75  A    between atoms: _171  and  _174
REMARK   76  A    between atoms: _174  and  _175
REMARK   77  A    between atoms: _181  and  _183
REMARK   78  A    between atoms: _183  and  _184
REMARK   79  A    between atoms: _183  and  _186
REMARK   80  A    between atoms: _186  and  _187
REMARK   81  A    between atoms: _190  and  _192
REMARK   82  A    between atoms: _192  and  _193
REMARK   83  A    between atoms: _192  and  _195
REMARK   84  A    between atoms: _198  and  _200
REMARK   85  A    between atoms: _200  and  _201
REMARK   86  A    between atoms: _200  and  _203
REMARK   87  A    between atoms: _203  and  _204
REMARK   88  A    between atoms: _207  and  _209
REMARK   89  A    between atoms: _209  and  _210
REMARK   90  A    between atoms: _209  and  _212
REMARK   91  A    between atoms: _212  and  _213
REMARK   92  A    between atoms: _217  and  _218
REMARK   93  A    between atoms: _223  and  _225
REMARK   94  A    between atoms: _225  and  _226
REMARK   95  A    between atoms: _225  and  _228
REMARK   96  A    between atoms: _231  and  _233
REMARK   97  A    between atoms: _233  and  _234
REMARK   98  A    between atoms: _233  and  _236
REMARK   99  A    between atoms: _236  and  _237
REMARK  100  A    between atoms: _242  and  _244
REMARK  101  A    between atoms: _244  and  _245
REMARK  102  A    between atoms: _244  and  _247
REMARK  103  A    between atoms: _247  and  _248
REMARK  104  A    between atoms: _251  and  _253
REMARK  105  A    between atoms: _253  and  _254
REMARK  106  A    between atoms: _253  and  _256
REMARK  107  A    between atoms: _256  and  _257
REMARK  108  A    between atoms: _260  and  _262
REMARK  109  A    between atoms: _262  and  _263
REMARK  110  A    between atoms: _265  and  _267
REMARK  111  A    between atoms: _267  and  _268
REMARK  112  A    between atoms: _267  and  _270
REMARK  113  A    between atoms: _270  and  _271
REMARK  114  A    between atoms: _271  and  _272
REMARK  115  A    between atoms: _272  and  _273
REMARK  116  A    between atoms: _282  and  _284
REMARK  117  A    between atoms: _284  and  _285
REMARK  118  A    between atoms: _284  and  _287
REMARK  119  A    between atoms: _287  and  _288
REMARK  120  A    between atoms: _293  and  _295
REMARK  121  A    between atoms: _295  and  _296
REMARK  122  A    between atoms: _295  and  _298
REMARK  123  A    between atoms: _298  and  _299
REMARK  124  A    between atoms: _299  and  _300
REMARK  125  A    between atoms: _300  and  _301
REMARK  126  A    between atoms: _310  and  _312
REMARK  127  A    between atoms: _312  and  _313
REMARK  128  A    between atoms: _312  and  _315
REMARK  129  A    between atoms: _315  and  _316
REMARK  130  A    between atoms: _319  and  _321
REMARK  131  A    between atoms: _321  and  _322
REMARK  132  A    between atoms: _321  and  _324
REMARK  133  A    between atoms: _324  and  _325
REMARK  134  A    between atoms: _328  and  _330
REMARK  135  A    between atoms: _330  and  _331
REMARK  136  A    between atoms: _330  and  _333
REMARK  137  A    between atoms: _333  and  _334
REMARK  138  A    between atoms: _337  and  _339
REMARK  139  A    between atoms: _339  and  _340
REMARK  140  A    between atoms: _339  and  _342
REMARK  141  A    between atoms: _342  and  _343
REMARK  142  A    between atoms: _346  and  _348
REMARK  143  A    between atoms: _348  and  _349
REMARK  144  A    between atoms: _351  and  _353
REMARK  145  A    between atoms: _353  and  _354
REMARK  146  A    between atoms: _357  and  _359
REMARK  147  A    between atoms: _359  and  _360
REMARK  148  A    between atoms: _359  and  _362
REMARK  149  A    between atoms: _362  and  _363
REMARK  150  A    between atoms: _366  and  _368
REMARK  151  A    between atoms: _368  and  _369
REMARK  152  A    between atoms: _368  and  _371
REMARK  153  A    between atoms: _371  and  _372
REMARK  154  A    between atoms: _375  and  _377
REMARK  155  A    between atoms: _377  and  _378
REMARK  156  A    between atoms: _377  and  _380
REMARK  157  A    between atoms: _380  and  _381
REMARK  158  A    between atoms: _384  and  _386
REMARK  159  A    between atoms: _386  and  _387
REMARK  160  A    between atoms: _386  and  _389
REMARK  161  A    between atoms: _392  and  _394
REMARK  162  A    between atoms: _394  and  _395
REMARK  163  A    between atoms: _394  and  _397
REMARK  164  A    between atoms: _397  and  _398
REMARK  165  A    between atoms: _401  and  _403
REMARK  166  A    between atoms: _403  and  _404
REMARK  167  A    between atoms: _403  and  _406
REMARK  168  A    between atoms: _406  and  _407
REMARK  169  A    between atoms: _407  and  _408
REMARK  170  A    between atoms: _408  and  _409
REMARK  171  A    between atoms: _409  and  _410
REMARK  172  A    between atoms: _414  and  _416
REMARK  173  A    between atoms: _416  and  _417
REMARK  174  A    between atoms: _416  and  _419
REMARK  175  A    between atoms: _419  and  _420
REMARK  176  A    between atoms: _420  and  _421
REMARK  177  A    between atoms: _423  and  _425
REMARK  178  A    between atoms: _425  and  _426
REMARK  179  A    between atoms: _425  and  _428
REMARK  180  A    between atoms: _428  and  _429
REMARK  181  A    between atoms: _432  and  _434
REMARK  182  A    between atoms: _434  and  _435
REMARK  183  A    between atoms: _437  and  _439
REMARK  184  A    between atoms: _439  and  _440
REMARK  185  A    between atoms: _442  and  _444
REMARK  186  A    between atoms: _444  and  _445
REMARK  187  A    between atoms: _444  and  _447
REMARK  188  A    between atoms: _447  and  _448
REMARK  189  A    between atoms: _451  and  _453
REMARK  190  A    between atoms: _453  and  _454
REMARK  191  A    between atoms: _456  and  _458
REMARK  192  A    between atoms: _458  and  _459
REMARK  193  A    between atoms: _461  and  _463
REMARK  194  A    between atoms: _463  and  _464
REMARK  195  A    between atoms: _463  and  _466
REMARK  196  A    between atoms: _466  and  _467
REMARK  197  A    between atoms: _473  and  _475
REMARK  198  A    between atoms: _475  and  _476
REMARK  199  A    between atoms: _475  and  _478
REMARK  200  A    between atoms: _478  and  _479
REMARK  201  A    between atoms: _482  and  _484
REMARK  202  A    between atoms: _484  and  _485
REMARK  203  A    between atoms: _484  and  _487
REMARK  204  A    between atoms: _490  and  _492
REMARK  205  A    between atoms: _492  and  _493
REMARK  206  A    between atoms: _492  and  _495
REMARK  207  A    between atoms: _495  and  _496
REMARK  208  A    between atoms: _499  and  _501
REMARK  209  A    between atoms: _501  and  _502
REMARK  210  A    between atoms: _501  and  _504
REMARK  211  A    between atoms: _504  and  _505
REMARK  212  A    between atoms: _509  and  _510
REMARK  213  A    between atoms: _515  and  _517
REMARK  214  A    between atoms: _517  and  _518
REMARK  215  A    between atoms: _517  and  _520
REMARK  216  A    between atoms: _523  and  _525
REMARK  217  A    between atoms: _525  and  _526
REMARK  218  A    between atoms: _525  and  _528
REMARK  219  A    between atoms: _528  and  _529
REMARK  220  A    between atoms: _534  and  _536
REMARK  221  A    between atoms: _536  and  _537
REMARK  222  A    between atoms: _536  and  _539
REMARK  223  A    between atoms: _539  and  _540
REMARK  224  A    between atoms: _543  and  _545
REMARK  225  A    between atoms: _545  and  _546
REMARK  226  A    between atoms: _545  and  _548
REMARK  227  A    between atoms: _548  and  _549
REMARK  228  A    between atoms: _552  and  _554
REMARK  229  A    between atoms: _554  and  _555
REMARK  230  A    between atoms: _557  and  _559
REMARK  231  A    between atoms: _559  and  _560
REMARK  232  A    between atoms: _559  and  _562
REMARK  233  A    between atoms: _562  and  _563
REMARK  234  A    between atoms: _563  and  _564
REMARK  235  A    between atoms: _564  and  _565
REMARK  236  A    between atoms: _574  and  _576
REMARK  237  A    between atoms: _576  and  _577
REMARK  238  A    between atoms: _576  and  _579
REMARK  239  A    between atoms: _579  and  _580
REMARK                            x       y       z     vdW  Elec       q    Type
REMARK                         _______ _______ _______ _____ _____    ______ ____
ROOT
ATOM      1  O   HOH     1      19.850  23.115  13.260  0.00  0.00    +0.000 OA
ENDROOT
TORSDOF 0
REMARK  Name = ../refined-set-2016/1sdu/1sdu_pocket.pdb
REMARK  239 active torsions:
REMARK  status: ('A' for Active; 'I' for Inactive)
REMARK    1  A    between atoms: _1  and  _3
REMARK    2  A    between atoms: _3  and  _4
REMARK    3  A    between atoms: _3  and  _6
REMARK    4  A    between atoms: _6  and  _7
REMARK    5  A    between atoms: _7  and  _8
REMARK    6  A    between atoms: _8  and  _9
REMARK    7  A    between atoms: _18  and  _20
REMARK    8  A    between atoms: _20  and  _21
REMARK    9  A    between atoms: _20  and  _23
REMARK   10  A    between atoms: _23  and  _24
REMARK   11  A    between atoms: _27  and  _29
REMARK   12  A    between atoms: _29  and  _30
REMARK   13  A    between atoms: _29  and  _32
REMARK   14  A    between atoms: _32  and  _33
REMARK   15  A    between atoms: _36  and  _38
REMARK   16  A    between atoms: _38  and  _39
REMARK   17  A    between atoms: _38  and  _41
REMARK   18  A    between atoms: _41  and  _42
REMARK   19  A    between atoms: _45  and  _47
REMARK   20  A    between atoms: _47  and  _48
REMARK   21  A    between atoms: _47  and  _50
REMARK   22  A    between atoms: _50  and  _51
REMARK   23  A    between atoms: _54  and  _56
REMARK   24  A    between atoms: _56  and  _57
REMARK   25  A    between atoms: _56  and  _59
REMARK   26  A    between atoms: _59  and  _60
REMARK   27  A    between atoms: _63  and  _65
REMARK   28  A    between atoms: _65  and  _66
REMARK   29  A    between atoms: _68  and  _70
REMARK   30  A    between atoms: _70  and  _71
REMARK   31  A    between atoms: _74  and  _76
REMARK   32  A    between atoms: _76  and  _77
REMARK   33  A    between atoms: _76  and  _79
REMARK   34  A    between atoms: _79  and  _80
REMARK   35  A    between atoms: _83  and  _85
REMARK   36  A    between atoms: _85  and  _86
REMARK   37  A    between atoms: _85  and  _88
REMARK   38  A    between atoms: _88  and  _89
REMARK   39  A    between atoms: _92  and  _94
REMARK   40  A    between atoms: _94  and  _95
REMARK   41  A    between atoms: _94  and  _97
REMARK   42  A    between atoms: _97  and  _98
REMARK   43  A    between atoms: _101  and  _103
REMARK   44  A    between atoms: _103  and  _104
REMARK   45  A    between atoms: _103  and  _106
REMARK   46  A    between atoms: _109  and  _111
REMARK   47  A    between atoms: _111  and  _112
REMARK   48  A    between atoms: _111  and  _114
REMARK   49  A    between atoms: _115  and  _116
REMARK   50  A    between atoms: _116  and  _117
REMARK   51  A    between atoms: _117  and  _118
REMARK   52  A    between atoms: _122  and  _124
REMARK   53  A    between atoms: _124  and  _125
REMARK   54  A    between atoms: _124  and  _127
REMARK   55  A    between atoms: _127  and  _128
REMARK   56  A    between atoms: _128  and  _129
REMARK   57  A    between atoms: _131  and  _133
REMARK   58  A    between atoms: _133  and  _134
REMARK   59  A    between atoms: _133  and  _136
REMARK   60  A    between atoms: _136  and  _137
REMARK   61  A    between atoms: _140  and  _142
REMARK   62  A    between atoms: _142  and  _143
REMARK   63  A    between atoms: _145  and  _147
REMARK   64  A    between atoms: _147  and  _148
REMARK   65  A    between atoms: _150  and  _152
REMARK   66  A    between atoms: _152  and  _153
REMARK   67  A    between atoms: _152  and  _155
REMARK   68  A    between atoms: _155  and  _156
REMARK   69  A    between atoms: _159  and  _161
REMARK   70  A    between atoms: _161  and  _162
REMARK   71  A    between atoms: _164  and  _166
REMARK   72  A    between atoms: _166  and  _167
REMARK   73  A    between atoms: _169  and  _171
REMARK   74  A    between atoms: _171  and  _172
REMARK   75  A    between atoms: _171  and  _174
REMARK   76  A    between atoms: _174  and  _175
REMARK   77  A    between atoms: _181  and  _183
REMARK   78  A    between atoms: _183  and  _184
REMARK   79  A    between atoms: _183  and  _186
REMARK   80  A    between atoms: _186  and  _187
REMARK   81  A    between atoms: _190  and  _192
REMARK   82  A    between atoms: _192  and  _193
REMARK   83  A    between atoms: _192  and  _195
REMARK   84  A    between atoms: _198  and  _200
REMARK   85  A    between atoms: _200  and  _201
REMARK   86  A    between atoms: _200  and  _203
REMARK   87  A    between atoms: _203  and  _204
REMARK   88  A    between atoms: _207  and  _209
REMARK   89  A    between atoms: _209  and  _210
REMARK   90  A    between atoms: _209  and  _212
REMARK   91  A    between atoms: _212  and  _213
REMARK   92  A    between atoms: _217  and  _218
REMARK   93  A    between atoms: _223  and  _225
REMARK   94  A    between atoms: _225  and  _226
REMARK   95  A    between atoms: _225  and  _228
REMARK   96  A    between atoms: _231  and  _233
REMARK   97  A    between atoms: _233  and  _234
REMARK   98  A    between atoms: _233  and  _236
REMARK   99  A    between atoms: _236  and  _237
REMARK  100  A    between atoms: _242  and  _244
REMARK  101  A    between atoms: _244  and  _245
REMARK  102  A    between atoms: _244  and  _247
REMARK  103  A    between atoms: _247  and  _248
REMARK  104  A    between atoms: _251  and  _253
REMARK  105  A    between atoms: _253  and  _254
REMARK  106  A    between atoms: _253  and  _256
REMARK  107  A    between atoms: _256  and  _257
REMARK  108  A    between atoms: _260  and  _262
REMARK  109  A    between atoms: _262  and  _263
REMARK  110  A    between atoms: _265  and  _267
REMARK  111  A    between atoms: _267  and  _268
REMARK  112  A    between atoms: _267  and  _270
REMARK  113  A    between atoms: _270  and  _271
REMARK  114  A    between atoms: _271  and  _272
REMARK  115  A    between atoms: _272  and  _273
REMARK  116  A    between atoms: _282  and  _284
REMARK  117  A    between atoms: _284  and  _285
REMARK  118  A    between atoms: _284  and  _287
REMARK  119  A    between atoms: _287  and  _288
REMARK  120  A    between atoms: _293  and  _295
REMARK  121  A    between atoms: _295  and  _296
REMARK  122  A    between atoms: _295  and  _298
REMARK  123  A    between atoms: _298  and  _299
REMARK  124  A    between atoms: _299  and  _300
REMARK  125  A    between atoms: _300  and  _301
REMARK  126  A    between atoms: _310  and  _312
REMARK  127  A    between atoms: _312  and  _313
REMARK  128  A    between atoms: _312  and  _315
REMARK  129  A    between atoms: _315  and  _316
REMARK  130  A    between atoms: _319  and  _321
REMARK  131  A    between atoms: _321  and  _322
REMARK  132  A    between atoms: _321  and  _324
REMARK  133  A    between atoms: _324  and  _325
REMARK  134  A    between atoms: _328  and  _330
REMARK  135  A    between atoms: _330  and  _331
REMARK  136  A    between atoms: _330  and  _333
REMARK  137  A    between atoms: _333  and  _334
REMARK  138  A    between atoms: _337  and  _339
REMARK  139  A    between atoms: _339  and  _340
REMARK  140  A    between atoms: _339  and  _342
REMARK  141  A    between atoms: _342  and  _343
REMARK  142  A    between atoms: _346  and  _348
REMARK  143  A    between atoms: _348  and  _349
REMARK  144  A    between atoms: _351  and  _353
REMARK  145  A    between atoms: _353  and  _354
REMARK  146  A    between atoms: _357  and  _359
REMARK  147  A    between atoms: _359  and  _360
REMARK  148  A    between atoms: _359  and  _362
REMARK  149  A    between atoms: _362  and  _363
REMARK  150  A    between atoms: _366  and  _368
REMARK  151  A    between atoms: _368  and  _369
REMARK  152  A    between atoms: _368  and  _371
REMARK  153  A    between atoms: _371  and  _372
REMARK  154  A    between atoms: _375  and  _377
REMARK  155  A    between atoms: _377  and  _378
REMARK  156  A    between atoms: _377  and  _380
REMARK  157  A    between atoms: _380  and  _381
REMARK  158  A    between atoms: _384  and  _386
REMARK  159  A    between atoms: _386  and  _387
REMARK  160  A    between atoms: _386  and  _389
REMARK  161  A    between atoms: _392  and  _394
REMARK  162  A    between atoms: _394  and  _395
REMARK  163  A    between atoms: _394  and  _397
REMARK  164  A    between atoms: _397  and  _398
REMARK  165  A    between atoms: _401  and  _403
REMARK  166  A    between atoms: _403  and  _404
REMARK  167  A    between atoms: _403  and  _406
REMARK  168  A    between atoms: _406  and  _407
REMARK  169  A    between atoms: _407  and  _408
REMARK  170  A    between atoms: _408  and  _409
REMARK  171  A    between atoms: _409  and  _410
REMARK  172  A    between atoms: _414  and  _416
REMARK  173  A    between atoms: _416  and  _417
REMARK  174  A    between atoms: _416  and  _419
REMARK  175  A    between atoms: _419  and  _420
REMARK  176  A    between atoms: _420  and  _421
REMARK  177  A    between atoms: _423  and  _425
REMARK  178  A    between atoms: _425  and  _426
REMARK  179  A    between atoms: _425  and  _428
REMARK  180  A    between atoms: _428  and  _429
REMARK  181  A    between atoms: _432  and  _434
REMARK  182  A    between atoms: _434  and  _435
REMARK  183  A    between atoms: _437  and  _439
REMARK  184  A    between atoms: _439  and  _440
REMARK  185  A    between atoms: _442  and  _444
REMARK  186  A    between atoms: _444  and  _445
REMARK  187  A    between atoms: _444  and  _447
REMARK  188  A    between atoms: _447  and  _448
REMARK  189  A    between atoms: _451  and  _453
REMARK  190  A    between atoms: _453  and  _454
REMARK  191  A    between atoms: _456  and  _458
REMARK  192  A    between atoms: _458  and  _459
REMARK  193  A    between atoms: _461  and  _463
REMARK  194  A    between atoms: _463  and  _464
REMARK  195  A    between atoms: _463  and  _466
REMARK  196  A    between atoms: _466  and  _467
REMARK  197  A    between atoms: _473  and  _475
REMARK  198  A    between atoms: _475  and  _476
REMARK  199  A    between atoms: _475  and  _478
REMARK  200  A    between atoms: _478  and  _479
REMARK  201  A    between atoms: _482  and  _484
REMARK  202  A    between atoms: _484  and  _485
REMARK  203  A    between atoms: _484  and  _487
REMARK  204  A    between atoms: _490  and  _492
REMARK  205  A    between atoms: _492  and  _493
REMARK  206  A    between atoms: _492  and  _495
REMARK  207  A    between atoms: _495  and  _496
REMARK  208  A    between atoms: _499  and  _501
REMARK  209  A    between atoms: _501  and  _502
REMARK  210  A    between atoms: _501  and  _504
REMARK  211  A    between atoms: _504  and  _505
REMARK  212  A    between atoms: _509  and  _510
REMARK  213  A    between atoms: _515  and  _517
REMARK  214  A    between atoms: _517  and  _518
REMARK  215  A    between atoms: _517  and  _520
REMARK  216  A    between atoms: _523  and  _525
REMARK  217  A    between atoms: _525  and  _526
REMARK  218  A    between atoms: _525  and  _528
REMARK  219  A    between atoms: _528  and  _529
REMARK  220  A    between atoms: _534  and  _536
REMARK  221  A    between atoms: _536  and  _537
REMARK  222  A    between atoms: _536  and  _539
REMARK  223  A    between atoms: _539  and  _540
REMARK  224  A    between atoms: _543  and  _545
REMARK  225  A    between atoms: _545  and  _546
REMARK  226  A    between atoms: _545  and  _548
REMARK  227  A    between atoms: _548  and  _549
REMARK  228  A    between atoms: _552  and  _554
REMARK  229  A    between atoms: _554  and  _555
REMARK  230  A    between atoms: _557  and  _559
REMARK  231  A    between atoms: _559  and  _560
REMARK  232  A    between atoms: _559  and  _562
REMARK  233  A    between atoms: _562  and  _563
REMARK  234  A    between atoms: _563  and  _564
REMARK  235  A    between atoms: _564  and  _565
REMARK  236  A    between atoms: _574  and  _576
REMARK  237  A    between atoms: _576  and  _577
REMARK  238  A    between atoms: _576  and  _579
REMARK  239  A    between atoms: _579  and  _580
REMARK                            x       y       z     vdW  Elec       q    Type
REMARK                         _______ _______ _______ _____ _____    ______ ____
ROOT
ATOM      1  O   HOH     1      20.897  25.894   6.807  0.00  0.00    +0.000 OA
ENDROOT
TORSDOF 0
REMARK  Name = ../refined-set-2016/1sdu/1sdu_pocket.pdb
REMARK  239 active torsions:
REMARK  status: ('A' for Active; 'I' for Inactive)
REMARK    1  A    between atoms: _1  and  _3
REMARK    2  A    between atoms: _3  and  _4
REMARK    3  A    between atoms: _3  and  _6
REMARK    4  A    between atoms: _6  and  _7
REMARK    5  A    between atoms: _7  and  _8
REMARK    6  A    between atoms: _8  and  _9
REMARK    7  A    between atoms: _18  and  _20
REMARK    8  A    between atoms: _20  and  _21
REMARK    9  A    between atoms: _20  and  _23
REMARK   10  A    between atoms: _23  and  _24
REMARK   11  A    between atoms: _27  and  _29
REMARK   12  A    between atoms: _29  and  _30
REMARK   13  A    between atoms: _29  and  _32
REMARK   14  A    between atoms: _32  and  _33
REMARK   15  A    between atoms: _36  and  _38
REMARK   16  A    between atoms: _38  and  _39
REMARK   17  A    between atoms: _38  and  _41
REMARK   18  A    between atoms: _41  and  _42
REMARK   19  A    between atoms: _45  and  _47
REMARK   20  A    between atoms: _47  and  _48
REMARK   21  A    between atoms: _47  and  _50
REMARK   22  A    between atoms: _50  and  _51
REMARK   23  A    between atoms: _54  and  _56
REMARK   24  A    between atoms: _56  and  _57
REMARK   25  A    between atoms: _56  and  _59
REMARK   26  A    between atoms: _59  and  _60
REMARK   27  A    between atoms: _63  and  _65
REMARK   28  A    between atoms: _65  and  _66
REMARK   29  A    between atoms: _68  and  _70
REMARK   30  A    between atoms: _70  and  _71
REMARK   31  A    between atoms: _74  and  _76
REMARK   32  A    between atoms: _76  and  _77
REMARK   33  A    between atoms: _76  and  _79
REMARK   34  A    between atoms: _79  and  _80
REMARK   35  A    between atoms: _83  and  _85
REMARK   36  A    between atoms: _85  and  _86
REMARK   37  A    between atoms: _85  and  _88
REMARK   38  A    between atoms: _88  and  _89
REMARK   39  A    between atoms: _92  and  _94
REMARK   40  A    between atoms: _94  and  _95
REMARK   41  A    between atoms: _94  and  _97
REMARK   42  A    between atoms: _97  and  _98
REMARK   43  A    between atoms: _101  and  _103
REMARK   44  A    between atoms: _103  and  _104
REMARK   45  A    between atoms: _103  and  _106
REMARK   46  A    between atoms: _109  and  _111
REMARK   47  A    between atoms: _111  and  _112
REMARK   48  A    between atoms: _111  and  _114
REMARK   49  A    between atoms: _115  and  _116
REMARK   50  A    between atoms: _116  and  _117
REMARK   51  A    between atoms: _117  and  _118
REMARK   52  A    between atoms: _122  and  _124
REMARK   53  A    between atoms: _124  and  _125
REMARK   54  A    between atoms: _124  and  _127
REMARK   55  A    between atoms: _127  and  _128
REMARK   56  A    between atoms: _128  and  _129
REMARK   57  A    between atoms: _131  and  _133
REMARK   58  A    between atoms: _133  and  _134
REMARK   59  A    between atoms: _133  and  _136
REMARK   60  A    between atoms: _136  and  _137
REMARK   61  A    between atoms: _140  and  _142
REMARK   62  A    between atoms: _142  and  _143
REMARK   63  A    between atoms: _145  and  _147
REMARK   64  A    between atoms: _147  and  _148
REMARK   65  A    between atoms: _150  and  _152
REMARK   66  A    between atoms: _152  and  _153
REMARK   67  A    between atoms: _152  and  _155
REMARK   68  A    between atoms: _155  and  _156
REMARK   69  A    between atoms: _159  and  _161
REMARK   70  A    between atoms: _161  and  _162
REMARK   71  A    between atoms: _164  and  _166
REMARK   72  A    between atoms: _166  and  _167
REMARK   73  A    between atoms: _169  and  _171
REMARK   74  A    between atoms: _171  and  _172
REMARK   75  A    between atoms: _171  and  _174
REMARK   76  A    between atoms: _174  and  _175
REMARK   77  A    between atoms: _181  and  _183
REMARK   78  A    between atoms: _183  and  _184
REMARK   79  A    between atoms: _183  and  _186
REMARK   80  A    between atoms: _186  and  _187
REMARK   81  A    between atoms: _190  and  _192
REMARK   82  A    between atoms: _192  and  _193
REMARK   83  A    between atoms: _192  and  _195
REMARK   84  A    between atoms: _198  and  _200
REMARK   85  A    between atoms: _200  and  _201
REMARK   86  A    between atoms: _200  and  _203
REMARK   87  A    between atoms: _203  and  _204
REMARK   88  A    between atoms: _207  and  _209
REMARK   89  A    between atoms: _209  and  _210
REMARK   90  A    between atoms: _209  and  _212
REMARK   91  A    between atoms: _212  and  _213
REMARK   92  A    between atoms: _217  and  _218
REMARK   93  A    between atoms: _223  and  _225
REMARK   94  A    between atoms: _225  and  _226
REMARK   95  A    between atoms: _225  and  _228
REMARK   96  A    between atoms: _231  and  _233
REMARK   97  A    between atoms: _233  and  _234
REMARK   98  A    between atoms: _233  and  _236
REMARK   99  A    between atoms: _236  and  _237
REMARK  100  A    between atoms: _242  and  _244
REMARK  101  A    between atoms: _244  and  _245
REMARK  102  A    between atoms: _244  and  _247
REMARK  103  A    between atoms: _247  and  _248
REMARK  104  A    between atoms: _251  and  _253
REMARK  105  A    between atoms: _253  and  _254
REMARK  106  A    between atoms: _253  and  _256
REMARK  107  A    between atoms: _256  and  _257
REMARK  108  A    between atoms: _260  and  _262
REMARK  109  A    between atoms: _262  and  _263
REMARK  110  A    between atoms: _265  and  _267
REMARK  111  A    between atoms: _267  and  _268
REMARK  112  A    between atoms: _267  and  _270
REMARK  113  A    between atoms: _270  and  _271
REMARK  114  A    between atoms: _271  and  _272
REMARK  115  A    between atoms: _272  and  _273
REMARK  116  A    between atoms: _282  and  _284
REMARK  117  A    between atoms: _284  and  _285
REMARK  118  A    between atoms: _284  and  _287
REMARK  119  A    between atoms: _287  and  _288
REMARK  120  A    between atoms: _293  and  _295
REMARK  121  A    between atoms: _295  and  _296
REMARK  122  A    between atoms: _295  and  _298
REMARK  123  A    between atoms: _298  and  _299
REMARK  124  A    between atoms: _299  and  _300
REMARK  125  A    between atoms: _300  and  _301
REMARK  126  A    between atoms: _310  and  _312
REMARK  127  A    between atoms: _312  and  _313
REMARK  128  A    between atoms: _312  and  _315
REMARK  129  A    between atoms: _315  and  _316
REMARK  130  A    between atoms: _319  and  _321
REMARK  131  A    between atoms: _321  and  _322
REMARK  132  A    between atoms: _321  and  _324
REMARK  133  A    between atoms: _324  and  _325
REMARK  134  A    between atoms: _328  and  _330
REMARK  135  A    between atoms: _330  and  _331
REMARK  136  A    between atoms: _330  and  _333
REMARK  137  A    between atoms: _333  and  _334
REMARK  138  A    between atoms: _337  and  _339
REMARK  139  A    between atoms: _339  and  _340
REMARK  140  A    between atoms: _339  and  _342
REMARK  141  A    between atoms: _342  and  _343
REMARK  142  A    between atoms: _346  and  _348
REMARK  143  A    between atoms: _348  and  _349
REMARK  144  A    between atoms: _351  and  _353
REMARK  145  A    between atoms: _353  and  _354
REMARK  146  A    between atoms: _357  and  _359
REMARK  147  A    between atoms: _359  and  _360
REMARK  148  A    between atoms: _359  and  _362
REMARK  149  A    between atoms: _362  and  _363
REMARK  150  A    between atoms: _366  and  _368
REMARK  151  A    between atoms: _368  and  _369
REMARK  152  A    between atoms: _368  and  _371
REMARK  153  A    between atoms: _371  and  _372
REMARK  154  A    between atoms: _375  and  _377
REMARK  155  A    between atoms: _377  and  _378
REMARK  156  A    between atoms: _377  and  _380
REMARK  157  A    between atoms: _380  and  _381
REMARK  158  A    between atoms: _384  and  _386
REMARK  159  A    between atoms: _386  and  _387
REMARK  160  A    between atoms: _386  and  _389
REMARK  161  A    between atoms: _392  and  _394
REMARK  162  A    between atoms: _394  and  _395
REMARK  163  A    between atoms: _394  and  _397
REMARK  164  A    between atoms: _397  and  _398
REMARK  165  A    between atoms: _401  and  _403
REMARK  166  A    between atoms: _403  and  _404
REMARK  167  A    between atoms: _403  and  _406
REMARK  168  A    between atoms: _406  and  _407
REMARK  169  A    between atoms: _407  and  _408
REMARK  170  A    between atoms: _408  and  _409
REMARK  171  A    between atoms: _409  and  _410
REMARK  172  A    between atoms: _414  and  _416
REMARK  173  A    between atoms: _416  and  _417
REMARK  174  A    between atoms: _416  and  _419
REMARK  175  A    between atoms: _419  and  _420
REMARK  176  A    between atoms: _420  and  _421
REMARK  177  A    between atoms: _423  and  _425
REMARK  178  A    between atoms: _425  and  _426
REMARK  179  A    between atoms: _425  and  _428
REMARK  180  A    between atoms: _428  and  _429
REMARK  181  A    between atoms: _432  and  _434
REMARK  182  A    between atoms: _434  and  _435
REMARK  183  A    between atoms: _437  and  _439
REMARK  184  A    between atoms: _439  and  _440
REMARK  185  A    between atoms: _442  and  _444
REMARK  186  A    between atoms: _444  and  _445
REMARK  187  A    between atoms: _444  and  _447
REMARK  188  A    between atoms: _447  and  _448
REMARK  189  A    between atoms: _451  and  _453
REMARK  190  A    between atoms: _453  and  _454
REMARK  191  A    between atoms: _456  and  _458
REMARK  192  A    between atoms: _458  and  _459
REMARK  193  A    between atoms: _461  and  _463
REMARK  194  A    between atoms: _463  and  _464
REMARK  195  A    between atoms: _463  and  _466
REMARK  196  A    between atoms: _466  and  _467
REMARK  197  A    between atoms: _473  and  _475
REMARK  198  A    between atoms: _475  and  _476
REMARK  199  A    between atoms: _475  and  _478
REMARK  200  A    between atoms: _478  and  _479
REMARK  201  A    between atoms: _482  and  _484
REMARK  202  A    between atoms: _484  and  _485
REMARK  203  A    between atoms: _484  and  _487
REMARK  204  A    between atoms: _490  and  _492
REMARK  205  A    between atoms: _492  and  _493
REMARK  206  A    between atoms: _492  and  _495
REMARK  207  A    between atoms: _495  and  _496
REMARK  208  A    between atoms: _499  and  _501
REMARK  209  A    between atoms: _501  and  _502
REMARK  210  A    between atoms: _501  and  _504
REMARK  211  A    between atoms: _504  and  _505
REMARK  212  A    between atoms: _509  and  _510
REMARK  213  A    between atoms: _515  and  _517
REMARK  214  A    between atoms: _517  and  _518
REMARK  215  A    between atoms: _517  and  _520
REMARK  216  A    between atoms: _523  and  _525
REMARK  217  A    between atoms: _525  and  _526
REMARK  218  A    between atoms: _525  and  _528
REMARK  219  A    between atoms: _528  and  _529
REMARK  220  A    between atoms: _534  and  _536
REMARK  221  A    between atoms: _536  and  _537
REMARK  222  A    between atoms: _536  and  _539
REMARK  223  A    between atoms: _539  and  _540
REMARK  224  A    between atoms: _543  and  _545
REMARK  225  A    between atoms: _545  and  _546
REMARK  226  A    between atoms: _545  and  _548
REMARK  227  A    between atoms: _548  and  _549
REMARK  228  A    between atoms: _552  and  _554
REMARK  229  A    between atoms: _554  and  _555
REMARK  230  A    between atoms: _557  and  _559
REMARK  231  A    between atoms: _559  and  _560
REMARK  232  A    between atoms: _559  and  _562
REMARK  233  A    between atoms: _562  and  _563
REMARK  234  A    between atoms: _563  and  _564
REMARK  235  A    between atoms: _564  and  _565
REMARK  236  A    between atoms: _574  and  _576
REMARK  237  A    between atoms: _576  and  _577
REMARK  238  A    between atoms: _576  and  _579
REMARK  239  A    between atoms: _579  and  _580
REMARK                            x       y       z     vdW  Elec       q    Type
REMARK                         _______ _______ _______ _____ _____    ______ ____
ROOT
ATOM      1  O   HOH     1      26.399  18.642  13.294  0.00  0.00    +0.000 OA
ENDROOT
TORSDOF 0
REMARK  Name = ../refined-set-2016/1sdu/1sdu_pocket.pdb
REMARK  239 active torsions:
REMARK  status: ('A' for Active; 'I' for Inactive)
REMARK    1  A    between atoms: _1  and  _3
REMARK    2  A    between atoms: _3  and  _4
REMARK    3  A    between atoms: _3  and  _6
REMARK    4  A    between atoms: _6  and  _7
REMARK    5  A    between atoms: _7  and  _8
REMARK    6  A    between atoms: _8  and  _9
REMARK    7  A    between atoms: _18  and  _20
REMARK    8  A    between atoms: _20  and  _21
REMARK    9  A    between atoms: _20  and  _23
REMARK   10  A    between atoms: _23  and  _24
REMARK   11  A    between atoms: _27  and  _29
REMARK   12  A    between atoms: _29  and  _30
REMARK   13  A    between atoms: _29  and  _32
REMARK   14  A    between atoms: _32  and  _33
REMARK   15  A    between atoms: _36  and  _38
REMARK   16  A    between atoms: _38  and  _39
REMARK   17  A    between atoms: _38  and  _41
REMARK   18  A    between atoms: _41  and  _42
REMARK   19  A    between atoms: _45  and  _47
REMARK   20  A    between atoms: _47  and  _48
REMARK   21  A    between atoms: _47  and  _50
REMARK   22  A    between atoms: _50  and  _51
REMARK   23  A    between atoms: _54  and  _56
REMARK   24  A    between atoms: _56  and  _57
REMARK   25  A    between atoms: _56  and  _59
REMARK   26  A    between atoms: _59  and  _60
REMARK   27  A    between atoms: _63  and  _65
REMARK   28  A    between atoms: _65  and  _66
REMARK   29  A    between atoms: _68  and  _70
REMARK   30  A    between atoms: _70  and  _71
REMARK   31  A    between atoms: _74  and  _76
REMARK   32  A    between atoms: _76  and  _77
REMARK   33  A    between atoms: _76  and  _79
REMARK   34  A    between atoms: _79  and  _80
REMARK   35  A    between atoms: _83  and  _85
REMARK   36  A    between atoms: _85  and  _86
REMARK   37  A    between atoms: _85  and  _88
REMARK   38  A    between atoms: _88  and  _89
REMARK   39  A    between atoms: _92  and  _94
REMARK   40  A    between atoms: _94  and  _95
REMARK   41  A    between atoms: _94  and  _97
REMARK   42  A    between atoms: _97  and  _98
REMARK   43  A    between atoms: _101  and  _103
REMARK   44  A    between atoms: _103  and  _104
REMARK   45  A    between atoms: _103  and  _106
REMARK   46  A    between atoms: _109  and  _111
REMARK   47  A    between atoms: _111  and  _112
REMARK   48  A    between atoms: _111  and  _114
REMARK   49  A    between atoms: _115  and  _116
REMARK   50  A    between atoms: _116  and  _117
REMARK   51  A    between atoms: _117  and  _118
REMARK   52  A    between atoms: _122  and  _124
REMARK   53  A    between atoms: _124  and  _125
REMARK   54  A    between atoms: _124  and  _127
REMARK   55  A    between atoms: _127  and  _128
REMARK   56  A    between atoms: _128  and  _129
REMARK   57  A    between atoms: _131  and  _133
REMARK   58  A    between atoms: _133  and  _134
REMARK   59  A    between atoms: _133  and  _136
REMARK   60  A    between atoms: _136  and  _137
REMARK   61  A    between atoms: _140  and  _142
REMARK   62  A    between atoms: _142  and  _143
REMARK   63  A    between atoms: _145  and  _147
REMARK   64  A    between atoms: _147  and  _148
REMARK   65  A    between atoms: _150  and  _152
REMARK   66  A    between atoms: _152  and  _153
REMARK   67  A    between atoms: _152  and  _155
REMARK   68  A    between atoms: _155  and  _156
REMARK   69  A    between atoms: _159  and  _161
REMARK   70  A    between atoms: _161  and  _162
REMARK   71  A    between atoms: _164  and  _166
REMARK   72  A    between atoms: _166  and  _167
REMARK   73  A    between atoms: _169  and  _171
REMARK   74  A    between atoms: _171  and  _172
REMARK   75  A    between atoms: _171  and  _174
REMARK   76  A    between atoms: _174  and  _175
REMARK   77  A    between atoms: _181  and  _183
REMARK   78  A    between atoms: _183  and  _184
REMARK   79  A    between atoms: _183  and  _186
REMARK   80  A    between atoms: _186  and  _187
REMARK   81  A    between atoms: _190  and  _192
REMARK   82  A    between atoms: _192  and  _193
REMARK   83  A    between atoms: _192  and  _195
REMARK   84  A    between atoms: _198  and  _200
REMARK   85  A    between atoms: _200  and  _201
REMARK   86  A    between atoms: _200  and  _203
REMARK   87  A    between atoms: _203  and  _204
REMARK   88  A    between atoms: _207  and  _209
REMARK   89  A    between atoms: _209  and  _210
REMARK   90  A    between atoms: _209  and  _212
REMARK   91  A    between atoms: _212  and  _213
REMARK   92  A    between atoms: _217  and  _218
REMARK   93  A    between atoms: _223  and  _225
REMARK   94  A    between atoms: _225  and  _226
REMARK   95  A    between atoms: _225  and  _228
REMARK   96  A    between atoms: _231  and  _233
REMARK   97  A    between atoms: _233  and  _234
REMARK   98  A    between atoms: _233  and  _236
REMARK   99  A    between atoms: _236  and  _237
REMARK  100  A    between atoms: _242  and  _244
REMARK  101  A    between atoms: _244  and  _245
REMARK  102  A    between atoms: _244  and  _247
REMARK  103  A    between atoms: _247  and  _248
REMARK  104  A    between atoms: _251  and  _253
REMARK  105  A    between atoms: _253  and  _254
REMARK  106  A    between atoms: _253  and  _256
REMARK  107  A    between atoms: _256  and  _257
REMARK  108  A    between atoms: _260  and  _262
REMARK  109  A    between atoms: _262  and  _263
REMARK  110  A    between atoms: _265  and  _267
REMARK  111  A    between atoms: _267  and  _268
REMARK  112  A    between atoms: _267  and  _270
REMARK  113  A    between atoms: _270  and  _271
REMARK  114  A    between atoms: _271  and  _272
REMARK  115  A    between atoms: _272  and  _273
REMARK  116  A    between atoms: _282  and  _284
REMARK  117  A    between atoms: _284  and  _285
REMARK  118  A    between atoms: _284  and  _287
REMARK  119  A    between atoms: _287  and  _288
REMARK  120  A    between atoms: _293  and  _295
REMARK  121  A    between atoms: _295  and  _296
REMARK  122  A    between atoms: _295  and  _298
REMARK  123  A    between atoms: _298  and  _299
REMARK  124  A    between atoms: _299  and  _300
REMARK  125  A    between atoms: _300  and  _301
REMARK  126  A    between atoms: _310  and  _312
REMARK  127  A    between atoms: _312  and  _313
REMARK  128  A    between atoms: _312  and  _315
REMARK  129  A    between atoms: _315  and  _316
REMARK  130  A    between atoms: _319  and  _321
REMARK  131  A    between atoms: _321  and  _322
REMARK  132  A    between atoms: _321  and  _324
REMARK  133  A    between atoms: _324  and  _325
REMARK  134  A    between atoms: _328  and  _330
REMARK  135  A    between atoms: _330  and  _331
REMARK  136  A    between atoms: _330  and  _333
REMARK  137  A    between atoms: _333  and  _334
REMARK  138  A    between atoms: _337  and  _339
REMARK  139  A    between atoms: _339  and  _340
REMARK  140  A    between atoms: _339  and  _342
REMARK  141  A    between atoms: _342  and  _343
REMARK  142  A    between atoms: _346  and  _348
REMARK  143  A    between atoms: _348  and  _349
REMARK  144  A    between atoms: _351  and  _353
REMARK  145  A    between atoms: _353  and  _354
REMARK  146  A    between atoms: _357  and  _359
REMARK  147  A    between atoms: _359  and  _360
REMARK  148  A    between atoms: _359  and  _362
REMARK  149  A    between atoms: _362  and  _363
REMARK  150  A    between atoms: _366  and  _368
REMARK  151  A    between atoms: _368  and  _369
REMARK  152  A    between atoms: _368  and  _371
REMARK  153  A    between atoms: _371  and  _372
REMARK  154  A    between atoms: _375  and  _377
REMARK  155  A    between atoms: _377  and  _378
REMARK  156  A    between atoms: _377  and  _380
REMARK  157  A    between atoms: _380  and  _381
REMARK  158  A    between atoms: _384  and  _386
REMARK  159  A    between atoms: _386  and  _387
REMARK  160  A    between atoms: _386  and  _389
REMARK  161  A    between atoms: _392  and  _394
REMARK  162  A    between atoms: _394  and  _395
REMARK  163  A    between atoms: _394  and  _397
REMARK  164  A    between atoms: _397  and  _398
REMARK  165  A    between atoms: _401  and  _403
REMARK  166  A    between atoms: _403  and  _404
REMARK  167  A    between atoms: _403  and  _406
REMARK  168  A    between atoms: _406  and  _407
REMARK  169  A    between atoms: _407  and  _408
REMARK  170  A    between atoms: _408  and  _409
REMARK  171  A    between atoms: _409  and  _410
REMARK  172  A    between atoms: _414  and  _416
REMARK  173  A    between atoms: _416  and  _417
REMARK  174  A    between atoms: _416  and  _419
REMARK  175  A    between atoms: _419  and  _420
REMARK  176  A    between atoms: _420  and  _421
REMARK  177  A    between atoms: _423  and  _425
REMARK  178  A    between atoms: _425  and  _426
REMARK  179  A    between atoms: _425  and  _428
REMARK  180  A    between atoms: _428  and  _429
REMARK  181  A    between atoms: _432  and  _434
REMARK  182  A    between atoms: _434  and  _435
REMARK  183  A    between atoms: _437  and  _439
REMARK  184  A    between atoms: _439  and  _440
REMARK  185  A    between atoms: _442  and  _444
REMARK  186  A    between atoms: _444  and  _445
REMARK  187  A    between atoms: _444  and  _447
REMARK  188  A    between atoms: _447  and  _448
REMARK  189  A    between atoms: _451  and  _453
REMARK  190  A    between atoms: _453  and  _454
REMARK  191  A    between atoms: _456  and  _458
REMARK  192  A    between atoms: _458  and  _459
REMARK  193  A    between atoms: _461  and  _463
REMARK  194  A    between atoms: _463  and  _464
REMARK  195  A    between atoms: _463  and  _466
REMARK  196  A    between atoms: _466  and  _467
REMARK  197  A    between atoms: _473  and  _475
REMARK  198  A    between atoms: _475  and  _476
REMARK  199  A    between atoms: _475  and  _478
REMARK  200  A    between atoms: _478  and  _479
REMARK  201  A    between atoms: _482  and  _484
REMARK  202  A    between atoms: _484  and  _485
REMARK  203  A    between atoms: _484  and  _487
REMARK  204  A    between atoms: _490  and  _492
REMARK  205  A    between atoms: _492  and  _493
REMARK  206  A    between atoms: _492  and  _495
REMARK  207  A    between atoms: _495  and  _496
REMARK  208  A    between atoms: _499  and  _501
REMARK  209  A    between atoms: _501  and  _502
REMARK  210  A    between atoms: _501  and  _504
REMARK  211  A    between atoms: _504  and  _505
REMARK  212  A    between atoms: _509  and  _510
REMARK  213  A    between atoms: _515  and  _517
REMARK  214  A    between atoms: _517  and  _518
REMARK  215  A    between atoms: _517  and  _520
REMARK  216  A    between atoms: _523  and  _525
REMARK  217  A    between atoms: _525  and  _526
REMARK  218  A    between atoms: _525  and  _528
REMARK  219  A    between atoms: _528  and  _529
REMARK  220  A    between atoms: _534  and  _536
REMARK  221  A    between atoms: _536  and  _537
REMARK  222  A    between atoms: _536  and  _539
REMARK  223  A    between atoms: _539  and  _540
REMARK  224  A    between atoms: _543  and  _545
REMARK  225  A    between atoms: _545  and  _546
REMARK  226  A    between atoms: _545  and  _548
REMARK  227  A    between atoms: _548  and  _549
REMARK  228  A    between atoms: _552  and  _554
REMARK  229  A    between atoms: _554  and  _555
REMARK  230  A    between atoms: _557  and  _559
REMARK  231  A    between atoms: _559  and  _560
REMARK  232  A    between atoms: _559  and  _562
REMARK  233  A    between atoms: _562  and  _563
REMARK  234  A    between atoms: _563  and  _564
REMARK  235  A    between atoms: _564  and  _565
REMARK  236  A    between atoms: _574  and  _576
REMARK  237  A    between atoms: _576  and  _577
REMARK  238  A    between atoms: _576  and  _579
REMARK  239  A    between atoms: _579  and  _580
REMARK                            x       y       z     vdW  Elec       q    Type
REMARK                         _______ _______ _______ _____ _____    ______ ____
ROOT
ATOM      1  O   HOH     1      23.750  25.616   6.029  0.00  0.00    +0.000 OA
ENDROOT
TORSDOF 0
REMARK  Name = ../refined-set-2016/1sdu/1sdu_pocket.pdb
REMARK  239 active torsions:
REMARK  status: ('A' for Active; 'I' for Inactive)
REMARK    1  A    between atoms: _1  and  _3
REMARK    2  A    between atoms: _3  and  _4
REMARK    3  A    between atoms: _3  and  _6
REMARK    4  A    between atoms: _6  and  _7
REMARK    5  A    between atoms: _7  and  _8
REMARK    6  A    between atoms: _8  and  _9
REMARK    7  A    between atoms: _18  and  _20
REMARK    8  A    between atoms: _20  and  _21
REMARK    9  A    between atoms: _20  and  _23
REMARK   10  A    between atoms: _23  and  _24
REMARK   11  A    between atoms: _27  and  _29
REMARK   12  A    between atoms: _29  and  _30
REMARK   13  A    between atoms: _29  and  _32
REMARK   14  A    between atoms: _32  and  _33
REMARK   15  A    between atoms: _36  and  _38
REMARK   16  A    between atoms: _38  and  _39
REMARK   17  A    between atoms: _38  and  _41
REMARK   18  A    between atoms: _41  and  _42
REMARK   19  A    between atoms: _45  and  _47
REMARK   20  A    between atoms: _47  and  _48
REMARK   21  A    between atoms: _47  and  _50
REMARK   22  A    between atoms: _50  and  _51
REMARK   23  A    between atoms: _54  and  _56
REMARK   24  A    between atoms: _56  and  _57
REMARK   25  A    between atoms: _56  and  _59
REMARK   26  A    between atoms: _59  and  _60
REMARK   27  A    between atoms: _63  and  _65
REMARK   28  A    between atoms: _65  and  _66
REMARK   29  A    between atoms: _68  and  _70
REMARK   30  A    between atoms: _70  and  _71
REMARK   31  A    between atoms: _74  and  _76
REMARK   32  A    between atoms: _76  and  _77
REMARK   33  A    between atoms: _76  and  _79
REMARK   34  A    between atoms: _79  and  _80
REMARK   35  A    between atoms: _83  and  _85
REMARK   36  A    between atoms: _85  and  _86
REMARK   37  A    between atoms: _85  and  _88
REMARK   38  A    between atoms: _88  and  _89
REMARK   39  A    between atoms: _92  and  _94
REMARK   40  A    between atoms: _94  and  _95
REMARK   41  A    between atoms: _94  and  _97
REMARK   42  A    between atoms: _97  and  _98
REMARK   43  A    between atoms: _101  and  _103
REMARK   44  A    between atoms: _103  and  _104
REMARK   45  A    between atoms: _103  and  _106
REMARK   46  A    between atoms: _109  and  _111
REMARK   47  A    between atoms: _111  and  _112
REMARK   48  A    between atoms: _111  and  _114
REMARK   49  A    between atoms: _115  and  _116
REMARK   50  A    between atoms: _116  and  _117
REMARK   51  A    between atoms: _117  and  _118
REMARK   52  A    between atoms: _122  and  _124
REMARK   53  A    between atoms: _124  and  _125
REMARK   54  A    between atoms: _124  and  _127
REMARK   55  A    between atoms: _127  and  _128
REMARK   56  A    between atoms: _128  and  _129
REMARK   57  A    between atoms: _131  and  _133
REMARK   58  A    between atoms: _133  and  _134
REMARK   59  A    between atoms: _133  and  _136
REMARK   60  A    between atoms: _136  and  _137
REMARK   61  A    between atoms: _140  and  _142
REMARK   62  A    between atoms: _142  and  _143
REMARK   63  A    between atoms: _145  and  _147
REMARK   64  A    between atoms: _147  and  _148
REMARK   65  A    between atoms: _150  and  _152
REMARK   66  A    between atoms: _152  and  _153
REMARK   67  A    between atoms: _152  and  _155
REMARK   68  A    between atoms: _155  and  _156
REMARK   69  A    between atoms: _159  and  _161
REMARK   70  A    between atoms: _161  and  _162
REMARK   71  A    between atoms: _164  and  _166
REMARK   72  A    between atoms: _166  and  _167
REMARK   73  A    between atoms: _169  and  _171
REMARK   74  A    between atoms: _171  and  _172
REMARK   75  A    between atoms: _171  and  _174
REMARK   76  A    between atoms: _174  and  _175
REMARK   77  A    between atoms: _181  and  _183
REMARK   78  A    between atoms: _183  and  _184
REMARK   79  A    between atoms: _183  and  _186
REMARK   80  A    between atoms: _186  and  _187
REMARK   81  A    between atoms: _190  and  _192
REMARK   82  A    between atoms: _192  and  _193
REMARK   83  A    between atoms: _192  and  _195
REMARK   84  A    between atoms: _198  and  _200
REMARK   85  A    between atoms: _200  and  _201
REMARK   86  A    between atoms: _200  and  _203
REMARK   87  A    between atoms: _203  and  _204
REMARK   88  A    between atoms: _207  and  _209
REMARK   89  A    between atoms: _209  and  _210
REMARK   90  A    between atoms: _209  and  _212
REMARK   91  A    between atoms: _212  and  _213
REMARK   92  A    between atoms: _217  and  _218
REMARK   93  A    between atoms: _223  and  _225
REMARK   94  A    between atoms: _225  and  _226
REMARK   95  A    between atoms: _225  and  _228
REMARK   96  A    between atoms: _231  and  _233
REMARK   97  A    between atoms: _233  and  _234
REMARK   98  A    between atoms: _233  and  _236
REMARK   99  A    between atoms: _236  and  _237
REMARK  100  A    between atoms: _242  and  _244
REMARK  101  A    between atoms: _244  and  _245
REMARK  102  A    between atoms: _244  and  _247
REMARK  103  A    between atoms: _247  and  _248
REMARK  104  A    between atoms: _251  and  _253
REMARK  105  A    between atoms: _253  and  _254
REMARK  106  A    between atoms: _253  and  _256
REMARK  107  A    between atoms: _256  and  _257
REMARK  108  A    between atoms: _260  and  _262
REMARK  109  A    between atoms: _262  and  _263
REMARK  110  A    between atoms: _265  and  _267
REMARK  111  A    between atoms: _267  and  _268
REMARK  112  A    between atoms: _267  and  _270
REMARK  113  A    between atoms: _270  and  _271
REMARK  114  A    between atoms: _271  and  _272
REMARK  115  A    between atoms: _272  and  _273
REMARK  116  A    between atoms: _282  and  _284
REMARK  117  A    between atoms: _284  and  _285
REMARK  118  A    between atoms: _284  and  _287
REMARK  119  A    between atoms: _287  and  _288
REMARK  120  A    between atoms: _293  and  _295
REMARK  121  A    between atoms: _295  and  _296
REMARK  122  A    between atoms: _295  and  _298
REMARK  123  A    between atoms: _298  and  _299
REMARK  124  A    between atoms: _299  and  _300
REMARK  125  A    between atoms: _300  and  _301
REMARK  126  A    between atoms: _310  and  _312
REMARK  127  A    between atoms: _312  and  _313
REMARK  128  A    between atoms: _312  and  _315
REMARK  129  A    between atoms: _315  and  _316
REMARK  130  A    between atoms: _319  and  _321
REMARK  131  A    between atoms: _321  and  _322
REMARK  132  A    between atoms: _321  and  _324
REMARK  133  A    between atoms: _324  and  _325
REMARK  134  A    between atoms: _328  and  _330
REMARK  135  A    between atoms: _330  and  _331
REMARK  136  A    between atoms: _330  and  _333
REMARK  137  A    between atoms: _333  and  _334
REMARK  138  A    between atoms: _337  and  _339
REMARK  139  A    between atoms: _339  and  _340
REMARK  140  A    between atoms: _339  and  _342
REMARK  141  A    between atoms: _342  and  _343
REMARK  142  A    between atoms: _346  and  _348
REMARK  143  A    between atoms: _348  and  _349
REMARK  144  A    between atoms: _351  and  _353
REMARK  145  A    between atoms: _353  and  _354
REMARK  146  A    between atoms: _357  and  _359
REMARK  147  A    between atoms: _359  and  _360
REMARK  148  A    between atoms: _359  and  _362
REMARK  149  A    between atoms: _362  and  _363
REMARK  150  A    between atoms: _366  and  _368
REMARK  151  A    between atoms: _368  and  _369
REMARK  152  A    between atoms: _368  and  _371
REMARK  153  A    between atoms: _371  and  _372
REMARK  154  A    between atoms: _375  and  _377
REMARK  155  A    between atoms: _377  and  _378
REMARK  156  A    between atoms: _377  and  _380
REMARK  157  A    between atoms: _380  and  _381
REMARK  158  A    between atoms: _384  and  _386
REMARK  159  A    between atoms: _386  and  _387
REMARK  160  A    between atoms: _386  and  _389
REMARK  161  A    between atoms: _392  and  _394
REMARK  162  A    between atoms: _394  and  _395
REMARK  163  A    between atoms: _394  and  _397
REMARK  164  A    between atoms: _397  and  _398
REMARK  165  A    between atoms: _401  and  _403
REMARK  166  A    between atoms: _403  and  _404
REMARK  167  A    between atoms: _403  and  _406
REMARK  168  A    between atoms: _406  and  _407
REMARK  169  A    between atoms: _407  and  _408
REMARK  170  A    between atoms: _408  and  _409
REMARK  171  A    between atoms: _409  and  _410
REMARK  172  A    between atoms: _414  and  _416
REMARK  173  A    between atoms: _416  and  _417
REMARK  174  A    between atoms: _416  and  _419
REMARK  175  A    between atoms: _419  and  _420
REMARK  176  A    between atoms: _420  and  _421
REMARK  177  A    between atoms: _423  and  _425
REMARK  178  A    between atoms: _425  and  _426
REMARK  179  A    between atoms: _425  and  _428
REMARK  180  A    between atoms: _428  and  _429
REMARK  181  A    between atoms: _432  and  _434
REMARK  182  A    between atoms: _434  and  _435
REMARK  183  A    between atoms: _437  and  _439
REMARK  184  A    between atoms: _439  and  _440
REMARK  185  A    between atoms: _442  and  _444
REMARK  186  A    between atoms: _444  and  _445
REMARK  187  A    between atoms: _444  and  _447
REMARK  188  A    between atoms: _447  and  _448
REMARK  189  A    between atoms: _451  and  _453
REMARK  190  A    between atoms: _453  and  _454
REMARK  191  A    between atoms: _456  and  _458
REMARK  192  A    between atoms: _458  and  _459
REMARK  193  A    between atoms: _461  and  _463
REMARK  194  A    between atoms: _463  and  _464
REMARK  195  A    between atoms: _463  and  _466
REMARK  196  A    between atoms: _466  and  _467
REMARK  197  A    between atoms: _473  and  _475
REMARK  198  A    between atoms: _475  and  _476
REMARK  199  A    between atoms: _475  and  _478
REMARK  200  A    between atoms: _478  and  _479
REMARK  201  A    between atoms: _482  and  _484
REMARK  202  A    between atoms: _484  and  _485
REMARK  203  A    between atoms: _484  and  _487
REMARK  204  A    between atoms: _490  and  _492
REMARK  205  A    between atoms: _492  and  _493
REMARK  206  A    between atoms: _492  and  _495
REMARK  207  A    between atoms: _495  and  _496
REMARK  208  A    between atoms: _499  and  _501
REMARK  209  A    between atoms: _501  and  _502
REMARK  210  A    between atoms: _501  and  _504
REMARK  211  A    between atoms: _504  and  _505
REMARK  212  A    between atoms: _509  and  _510
REMARK  213  A    between atoms: _515  and  _517
REMARK  214  A    between atoms: _517  and  _518
REMARK  215  A    between atoms: _517  and  _520
REMARK  216  A    between atoms: _523  and  _525
REMARK  217  A    between atoms: _525  and  _526
REMARK  218  A    between atoms: _525  and  _528
REMARK  219  A    between atoms: _528  and  _529
REMARK  220  A    between atoms: _534  and  _536
REMARK  221  A    between atoms: _536  and  _537
REMARK  222  A    between atoms: _536  and  _539
REMARK  223  A    between atoms: _539  and  _540
REMARK  224  A    between atoms: _543  and  _545
REMARK  225  A    between atoms: _545  and  _546
REMARK  226  A    between atoms: _545  and  _548
REMARK  227  A    between atoms: _548  and  _549
REMARK  228  A    between atoms: _552  and  _554
REMARK  229  A    between atoms: _554  and  _555
REMARK  230  A    between atoms: _557  and  _559
REMARK  231  A    between atoms: _559  and  _560
REMARK  232  A    between atoms: _559  and  _562
REMARK  233  A    between atoms: _562  and  _563
REMARK  234  A    between atoms: _563  and  _564
REMARK  235  A    between atoms: _564  and  _565
REMARK  236  A    between atoms: _574  and  _576
REMARK  237  A    between atoms: _576  and  _577
REMARK  238  A    between atoms: _576  and  _579
REMARK  239  A    between atoms: _579  and  _580
REMARK                            x       y       z     vdW  Elec       q    Type
REMARK                         _______ _______ _______ _____ _____    ______ ____
ROOT
ATOM      1  O   HOH     1      25.417  23.865   7.310  0.00  0.00    +0.000 OA
ENDROOT
TORSDOF 0
REMARK  Name = ../refined-set-2016/1sdu/1sdu_pocket.pdb
REMARK  239 active torsions:
REMARK  status: ('A' for Active; 'I' for Inactive)
REMARK    1  A    between atoms: _1  and  _3
REMARK    2  A    between atoms: _3  and  _4
REMARK    3  A    between atoms: _3  and  _6
REMARK    4  A    between atoms: _6  and  _7
REMARK    5  A    between atoms: _7  and  _8
REMARK    6  A    between atoms: _8  and  _9
REMARK    7  A    between atoms: _18  and  _20
REMARK    8  A    between atoms: _20  and  _21
REMARK    9  A    between atoms: _20  and  _23
REMARK   10  A    between atoms: _23  and  _24
REMARK   11  A    between atoms: _27  and  _29
REMARK   12  A    between atoms: _29  and  _30
REMARK   13  A    between atoms: _29  and  _32
REMARK   14  A    between atoms: _32  and  _33
REMARK   15  A    between atoms: _36  and  _38
REMARK   16  A    between atoms: _38  and  _39
REMARK   17  A    between atoms: _38  and  _41
REMARK   18  A    between atoms: _41  and  _42
REMARK   19  A    between atoms: _45  and  _47
REMARK   20  A    between atoms: _47  and  _48
REMARK   21  A    between atoms: _47  and  _50
REMARK   22  A    between atoms: _50  and  _51
REMARK   23  A    between atoms: _54  and  _56
REMARK   24  A    between atoms: _56  and  _57
REMARK   25  A    between atoms: _56  and  _59
REMARK   26  A    between atoms: _59  and  _60
REMARK   27  A    between atoms: _63  and  _65
REMARK   28  A    between atoms: _65  and  _66
REMARK   29  A    between atoms: _68  and  _70
REMARK   30  A    between atoms: _70  and  _71
REMARK   31  A    between atoms: _74  and  _76
REMARK   32  A    between atoms: _76  and  _77
REMARK   33  A    between atoms: _76  and  _79
REMARK   34  A    between atoms: _79  and  _80
REMARK   35  A    between atoms: _83  and  _85
REMARK   36  A    between atoms: _85  and  _86
REMARK   37  A    between atoms: _85  and  _88
REMARK   38  A    between atoms: _88  and  _89
REMARK   39  A    between atoms: _92  and  _94
REMARK   40  A    between atoms: _94  and  _95
REMARK   41  A    between atoms: _94  and  _97
REMARK   42  A    between atoms: _97  and  _98
REMARK   43  A    between atoms: _101  and  _103
REMARK   44  A    between atoms: _103  and  _104
REMARK   45  A    between atoms: _103  and  _106
REMARK   46  A    between atoms: _109  and  _111
REMARK   47  A    between atoms: _111  and  _112
REMARK   48  A    between atoms: _111  and  _114
REMARK   49  A    between atoms: _115  and  _116
REMARK   50  A    between atoms: _116  and  _117
REMARK   51  A    between atoms: _117  and  _118
REMARK   52  A    between atoms: _122  and  _124
REMARK   53  A    between atoms: _124  and  _125
REMARK   54  A    between atoms: _124  and  _127
REMARK   55  A    between atoms: _127  and  _128
REMARK   56  A    between atoms: _128  and  _129
REMARK   57  A    between atoms: _131  and  _133
REMARK   58  A    between atoms: _133  and  _134
REMARK   59  A    between atoms: _133  and  _136
REMARK   60  A    between atoms: _136  and  _137
REMARK   61  A    between atoms: _140  and  _142
REMARK   62  A    between atoms: _142  and  _143
REMARK   63  A    between atoms: _145  and  _147
REMARK   64  A    between atoms: _147  and  _148
REMARK   65  A    between atoms: _150  and  _152
REMARK   66  A    between atoms: _152  and  _153
REMARK   67  A    between atoms: _152  and  _155
REMARK   68  A    between atoms: _155  and  _156
REMARK   69  A    between atoms: _159  and  _161
REMARK   70  A    between atoms: _161  and  _162
REMARK   71  A    between atoms: _164  and  _166
REMARK   72  A    between atoms: _166  and  _167
REMARK   73  A    between atoms: _169  and  _171
REMARK   74  A    between atoms: _171  and  _172
REMARK   75  A    between atoms: _171  and  _174
REMARK   76  A    between atoms: _174  and  _175
REMARK   77  A    between atoms: _181  and  _183
REMARK   78  A    between atoms: _183  and  _184
REMARK   79  A    between atoms: _183  and  _186
REMARK   80  A    between atoms: _186  and  _187
REMARK   81  A    between atoms: _190  and  _192
REMARK   82  A    between atoms: _192  and  _193
REMARK   83  A    between atoms: _192  and  _195
REMARK   84  A    between atoms: _198  and  _200
REMARK   85  A    between atoms: _200  and  _201
REMARK   86  A    between atoms: _200  and  _203
REMARK   87  A    between atoms: _203  and  _204
REMARK   88  A    between atoms: _207  and  _209
REMARK   89  A    between atoms: _209  and  _210
REMARK   90  A    between atoms: _209  and  _212
REMARK   91  A    between atoms: _212  and  _213
REMARK   92  A    between atoms: _217  and  _218
REMARK   93  A    between atoms: _223  and  _225
REMARK   94  A    between atoms: _225  and  _226
REMARK   95  A    between atoms: _225  and  _228
REMARK   96  A    between atoms: _231  and  _233
REMARK   97  A    between atoms: _233  and  _234
REMARK   98  A    between atoms: _233  and  _236
REMARK   99  A    between atoms: _236  and  _237
REMARK  100  A    between atoms: _242  and  _244
REMARK  101  A    between atoms: _244  and  _245
REMARK  102  A    between atoms: _244  and  _247
REMARK  103  A    between atoms: _247  and  _248
REMARK  104  A    between atoms: _251  and  _253
REMARK  105  A    between atoms: _253  and  _254
REMARK  106  A    between atoms: _253  and  _256
REMARK  107  A    between atoms: _256  and  _257
REMARK  108  A    between atoms: _260  and  _262
REMARK  109  A    between atoms: _262  and  _263
REMARK  110  A    between atoms: _265  and  _267
REMARK  111  A    between atoms: _267  and  _268
REMARK  112  A    between atoms: _267  and  _270
REMARK  113  A    between atoms: _270  and  _271
REMARK  114  A    between atoms: _271  and  _272
REMARK  115  A    between atoms: _272  and  _273
REMARK  116  A    between atoms: _282  and  _284
REMARK  117  A    between atoms: _284  and  _285
REMARK  118  A    between atoms: _284  and  _287
REMARK  119  A    between atoms: _287  and  _288
REMARK  120  A    between atoms: _293  and  _295
REMARK  121  A    between atoms: _295  and  _296
REMARK  122  A    between atoms: _295  and  _298
REMARK  123  A    between atoms: _298  and  _299
REMARK  124  A    between atoms: _299  and  _300
REMARK  125  A    between atoms: _300  and  _301
REMARK  126  A    between atoms: _310  and  _312
REMARK  127  A    between atoms: _312  and  _313
REMARK  128  A    between atoms: _312  and  _315
REMARK  129  A    between atoms: _315  and  _316
REMARK  130  A    between atoms: _319  and  _321
REMARK  131  A    between atoms: _321  and  _322
REMARK  132  A    between atoms: _321  and  _324
REMARK  133  A    between atoms: _324  and  _325
REMARK  134  A    between atoms: _328  and  _330
REMARK  135  A    between atoms: _330  and  _331
REMARK  136  A    between atoms: _330  and  _333
REMARK  137  A    between atoms: _333  and  _334
REMARK  138  A    between atoms: _337  and  _339
REMARK  139  A    between atoms: _339  and  _340
REMARK  140  A    between atoms: _339  and  _342
REMARK  141  A    between atoms: _342  and  _343
REMARK  142  A    between atoms: _346  and  _348
REMARK  143  A    between atoms: _348  and  _349
REMARK  144  A    between atoms: _351  and  _353
REMARK  145  A    between atoms: _353  and  _354
REMARK  146  A    between atoms: _357  and  _359
REMARK  147  A    between atoms: _359  and  _360
REMARK  148  A    between atoms: _359  and  _362
REMARK  149  A    between atoms: _362  and  _363
REMARK  150  A    between atoms: _366  and  _368
REMARK  151  A    between atoms: _368  and  _369
REMARK  152  A    between atoms: _368  and  _371
REMARK  153  A    between atoms: _371  and  _372
REMARK  154  A    between atoms: _375  and  _377
REMARK  155  A    between atoms: _377  and  _378
REMARK  156  A    between atoms: _377  and  _380
REMARK  157  A    between atoms: _380  and  _381
REMARK  158  A    between atoms: _384  and  _386
REMARK  159  A    between atoms: _386  and  _387
REMARK  160  A    between atoms: _386  and  _389
REMARK  161  A    between atoms: _392  and  _394
REMARK  162  A    between atoms: _394  and  _395
REMARK  163  A    between atoms: _394  and  _397
REMARK  164  A    between atoms: _397  and  _398
REMARK  165  A    between atoms: _401  and  _403
REMARK  166  A    between atoms: _403  and  _404
REMARK  167  A    between atoms: _403  and  _406
REMARK  168  A    between atoms: _406  and  _407
REMARK  169  A    between atoms: _407  and  _408
REMARK  170  A    between atoms: _408  and  _409
REMARK  171  A    between atoms: _409  and  _410
REMARK  172  A    between atoms: _414  and  _416
REMARK  173  A    between atoms: _416  and  _417
REMARK  174  A    between atoms: _416  and  _419
REMARK  175  A    between atoms: _419  and  _420
REMARK  176  A    between atoms: _420  and  _421
REMARK  177  A    between atoms: _423  and  _425
REMARK  178  A    between atoms: _425  and  _426
REMARK  179  A    between atoms: _425  and  _428
REMARK  180  A    between atoms: _428  and  _429
REMARK  181  A    between atoms: _432  and  _434
REMARK  182  A    between atoms: _434  and  _435
REMARK  183  A    between atoms: _437  and  _439
REMARK  184  A    between atoms: _439  and  _440
REMARK  185  A    between atoms: _442  and  _444
REMARK  186  A    between atoms: _444  and  _445
REMARK  187  A    between atoms: _444  and  _447
REMARK  188  A    between atoms: _447  and  _448
REMARK  189  A    between atoms: _451  and  _453
REMARK  190  A    between atoms: _453  and  _454
REMARK  191  A    between atoms: _456  and  _458
REMARK  192  A    between atoms: _458  and  _459
REMARK  193  A    between atoms: _461  and  _463
REMARK  194  A    between atoms: _463  and  _464
REMARK  195  A    between atoms: _463  and  _466
REMARK  196  A    between atoms: _466  and  _467
REMARK  197  A    between atoms: _473  and  _475
REMARK  198  A    between atoms: _475  and  _476
REMARK  199  A    between atoms: _475  and  _478
REMARK  200  A    between atoms: _478  and  _479
REMARK  201  A    between atoms: _482  and  _484
REMARK  202  A    between atoms: _484  and  _485
REMARK  203  A    between atoms: _484  and  _487
REMARK  204  A    between atoms: _490  and  _492
REMARK  205  A    between atoms: _492  and  _493
REMARK  206  A    between atoms: _492  and  _495
REMARK  207  A    between atoms: _495  and  _496
REMARK  208  A    between atoms: _499  and  _501
REMARK  209  A    between atoms: _501  and  _502
REMARK  210  A    between atoms: _501  and  _504
REMARK  211  A    between atoms: _504  and  _505
REMARK  212  A    between atoms: _509  and  _510
REMARK  213  A    between atoms: _515  and  _517
REMARK  214  A    between atoms: _517  and  _518
REMARK  215  A    between atoms: _517  and  _520
REMARK  216  A    between atoms: _523  and  _525
REMARK  217  A    between atoms: _525  and  _526
REMARK  218  A    between atoms: _525  and  _528
REMARK  219  A    between atoms: _528  and  _529
REMARK  220  A    between atoms: _534  and  _536
REMARK  221  A    between atoms: _536  and  _537
REMARK  222  A    between atoms: _536  and  _539
REMARK  223  A    between atoms: _539  and  _540
REMARK  224  A    between atoms: _543  and  _545
REMARK  225  A    between atoms: _545  and  _546
REMARK  226  A    between atoms: _545  and  _548
REMARK  227  A    between atoms: _548  and  _549
REMARK  228  A    between atoms: _552  and  _554
REMARK  229  A    between atoms: _554  and  _555
REMARK  230  A    between atoms: _557  and  _559
REMARK  231  A    between atoms: _559  and  _560
REMARK  232  A    between atoms: _559  and  _562
REMARK  233  A    between atoms: _562  and  _563
REMARK  234  A    between atoms: _563  and  _564
REMARK  235  A    between atoms: _564  and  _565
REMARK  236  A    between atoms: _574  and  _576
REMARK  237  A    between atoms: _576  and  _577
REMARK  238  A    between atoms: _576  and  _579
REMARK  239  A    between atoms: _579  and  _580
REMARK                            x       y       z     vdW  Elec       q    Type
REMARK                         _______ _______ _______ _____ _____    ______ ____
ROOT
ATOM      1  O   HOH     1      26.714  20.237   8.853  0.00  0.00    +0.000 OA
ENDROOT
TORSDOF 0
REMARK  Name = ../refined-set-2016/1sdu/1sdu_pocket.pdb
REMARK  239 active torsions:
REMARK  status: ('A' for Active; 'I' for Inactive)
REMARK    1  A    between atoms: _1  and  _3
REMARK    2  A    between atoms: _3  and  _4
REMARK    3  A    between atoms: _3  and  _6
REMARK    4  A    between atoms: _6  and  _7
REMARK    5  A    between atoms: _7  and  _8
REMARK    6  A    between atoms: _8  and  _9
REMARK    7  A    between atoms: _18  and  _20
REMARK    8  A    between atoms: _20  and  _21
REMARK    9  A    between atoms: _20  and  _23
REMARK   10  A    between atoms: _23  and  _24
REMARK   11  A    between atoms: _27  and  _29
REMARK   12  A    between atoms: _29  and  _30
REMARK   13  A    between atoms: _29  and  _32
REMARK   14  A    between atoms: _32  and  _33
REMARK   15  A    between atoms: _36  and  _38
REMARK   16  A    between atoms: _38  and  _39
REMARK   17  A    between atoms: _38  and  _41
REMARK   18  A    between atoms: _41  and  _42
REMARK   19  A    between atoms: _45  and  _47
REMARK   20  A    between atoms: _47  and  _48
REMARK   21  A    between atoms: _47  and  _50
REMARK   22  A    between atoms: _50  and  _51
REMARK   23  A    between atoms: _54  and  _56
REMARK   24  A    between atoms: _56  and  _57
REMARK   25  A    between atoms: _56  and  _59
REMARK   26  A    between atoms: _59  and  _60
REMARK   27  A    between atoms: _63  and  _65
REMARK   28  A    between atoms: _65  and  _66
REMARK   29  A    between atoms: _68  and  _70
REMARK   30  A    between atoms: _70  and  _71
REMARK   31  A    between atoms: _74  and  _76
REMARK   32  A    between atoms: _76  and  _77
REMARK   33  A    between atoms: _76  and  _79
REMARK   34  A    between atoms: _79  and  _80
REMARK   35  A    between atoms: _83  and  _85
REMARK   36  A    between atoms: _85  and  _86
REMARK   37  A    between atoms: _85  and  _88
REMARK   38  A    between atoms: _88  and  _89
REMARK   39  A    between atoms: _92  and  _94
REMARK   40  A    between atoms: _94  and  _95
REMARK   41  A    between atoms: _94  and  _97
REMARK   42  A    between atoms: _97  and  _98
REMARK   43  A    between atoms: _101  and  _103
REMARK   44  A    between atoms: _103  and  _104
REMARK   45  A    between atoms: _103  and  _106
REMARK   46  A    between atoms: _109  and  _111
REMARK   47  A    between atoms: _111  and  _112
REMARK   48  A    between atoms: _111  and  _114
REMARK   49  A    between atoms: _115  and  _116
REMARK   50  A    between atoms: _116  and  _117
REMARK   51  A    between atoms: _117  and  _118
REMARK   52  A    between atoms: _122  and  _124
REMARK   53  A    between atoms: _124  and  _125
REMARK   54  A    between atoms: _124  and  _127
REMARK   55  A    between atoms: _127  and  _128
REMARK   56  A    between atoms: _128  and  _129
REMARK   57  A    between atoms: _131  and  _133
REMARK   58  A    between atoms: _133  and  _134
REMARK   59  A    between atoms: _133  and  _136
REMARK   60  A    between atoms: _136  and  _137
REMARK   61  A    between atoms: _140  and  _142
REMARK   62  A    between atoms: _142  and  _143
REMARK   63  A    between atoms: _145  and  _147
REMARK   64  A    between atoms: _147  and  _148
REMARK   65  A    between atoms: _150  and  _152
REMARK   66  A    between atoms: _152  and  _153
REMARK   67  A    between atoms: _152  and  _155
REMARK   68  A    between atoms: _155  and  _156
REMARK   69  A    between atoms: _159  and  _161
REMARK   70  A    between atoms: _161  and  _162
REMARK   71  A    between atoms: _164  and  _166
REMARK   72  A    between atoms: _166  and  _167
REMARK   73  A    between atoms: _169  and  _171
REMARK   74  A    between atoms: _171  and  _172
REMARK   75  A    between atoms: _171  and  _174
REMARK   76  A    between atoms: _174  and  _175
REMARK   77  A    between atoms: _181  and  _183
REMARK   78  A    between atoms: _183  and  _184
REMARK   79  A    between atoms: _183  and  _186
REMARK   80  A    between atoms: _186  and  _187
REMARK   81  A    between atoms: _190  and  _192
REMARK   82  A    between atoms: _192  and  _193
REMARK   83  A    between atoms: _192  and  _195
REMARK   84  A    between atoms: _198  and  _200
REMARK   85  A    between atoms: _200  and  _201
REMARK   86  A    between atoms: _200  and  _203
REMARK   87  A    between atoms: _203  and  _204
REMARK   88  A    between atoms: _207  and  _209
REMARK   89  A    between atoms: _209  and  _210
REMARK   90  A    between atoms: _209  and  _212
REMARK   91  A    between atoms: _212  and  _213
REMARK   92  A    between atoms: _217  and  _218
REMARK   93  A    between atoms: _223  and  _225
REMARK   94  A    between atoms: _225  and  _226
REMARK   95  A    between atoms: _225  and  _228
REMARK   96  A    between atoms: _231  and  _233
REMARK   97  A    between atoms: _233  and  _234
REMARK   98  A    between atoms: _233  and  _236
REMARK   99  A    between atoms: _236  and  _237
REMARK  100  A    between atoms: _242  and  _244
REMARK  101  A    between atoms: _244  and  _245
REMARK  102  A    between atoms: _244  and  _247
REMARK  103  A    between atoms: _247  and  _248
REMARK  104  A    between atoms: _251  and  _253
REMARK  105  A    between atoms: _253  and  _254
REMARK  106  A    between atoms: _253  and  _256
REMARK  107  A    between atoms: _256  and  _257
REMARK  108  A    between atoms: _260  and  _262
REMARK  109  A    between atoms: _262  and  _263
REMARK  110  A    between atoms: _265  and  _267
REMARK  111  A    between atoms: _267  and  _268
REMARK  112  A    between atoms: _267  and  _270
REMARK  113  A    between atoms: _270  and  _271
REMARK  114  A    between atoms: _271  and  _272
REMARK  115  A    between atoms: _272  and  _273
REMARK  116  A    between atoms: _282  and  _284
REMARK  117  A    between atoms: _284  and  _285
REMARK  118  A    between atoms: _284  and  _287
REMARK  119  A    between atoms: _287  and  _288
REMARK  120  A    between atoms: _293  and  _295
REMARK  121  A    between atoms: _295  and  _296
REMARK  122  A    between atoms: _295  and  _298
REMARK  123  A    between atoms: _298  and  _299
REMARK  124  A    between atoms: _299  and  _300
REMARK  125  A    between atoms: _300  and  _301
REMARK  126  A    between atoms: _310  and  _312
REMARK  127  A    between atoms: _312  and  _313
REMARK  128  A    between atoms: _312  and  _315
REMARK  129  A    between atoms: _315  and  _316
REMARK  130  A    between atoms: _319  and  _321
REMARK  131  A    between atoms: _321  and  _322
REMARK  132  A    between atoms: _321  and  _324
REMARK  133  A    between atoms: _324  and  _325
REMARK  134  A    between atoms: _328  and  _330
REMARK  135  A    between atoms: _330  and  _331
REMARK  136  A    between atoms: _330  and  _333
REMARK  137  A    between atoms: _333  and  _334
REMARK  138  A    between atoms: _337  and  _339
REMARK  139  A    between atoms: _339  and  _340
REMARK  140  A    between atoms: _339  and  _342
REMARK  141  A    between atoms: _342  and  _343
REMARK  142  A    between atoms: _346  and  _348
REMARK  143  A    between atoms: _348  and  _349
REMARK  144  A    between atoms: _351  and  _353
REMARK  145  A    between atoms: _353  and  _354
REMARK  146  A    between atoms: _357  and  _359
REMARK  147  A    between atoms: _359  and  _360
REMARK  148  A    between atoms: _359  and  _362
REMARK  149  A    between atoms: _362  and  _363
REMARK  150  A    between atoms: _366  and  _368
REMARK  151  A    between atoms: _368  and  _369
REMARK  152  A    between atoms: _368  and  _371
REMARK  153  A    between atoms: _371  and  _372
REMARK  154  A    between atoms: _375  and  _377
REMARK  155  A    between atoms: _377  and  _378
REMARK  156  A    between atoms: _377  and  _380
REMARK  157  A    between atoms: _380  and  _381
REMARK  158  A    between atoms: _384  and  _386
REMARK  159  A    between atoms: _386  and  _387
REMARK  160  A    between atoms: _386  and  _389
REMARK  161  A    between atoms: _392  and  _394
REMARK  162  A    between atoms: _394  and  _395
REMARK  163  A    between atoms: _394  and  _397
REMARK  164  A    between atoms: _397  and  _398
REMARK  165  A    between atoms: _401  and  _403
REMARK  166  A    between atoms: _403  and  _404
REMARK  167  A    between atoms: _403  and  _406
REMARK  168  A    between atoms: _406  and  _407
REMARK  169  A    between atoms: _407  and  _408
REMARK  170  A    between atoms: _408  and  _409
REMARK  171  A    between atoms: _409  and  _410
REMARK  172  A    between atoms: _414  and  _416
REMARK  173  A    between atoms: _416  and  _417
REMARK  174  A    between atoms: _416  and  _419
REMARK  175  A    between atoms: _419  and  _420
REMARK  176  A    between atoms: _420  and  _421
REMARK  177  A    between atoms: _423  and  _425
REMARK  178  A    between atoms: _425  and  _426
REMARK  179  A    between atoms: _425  and  _428
REMARK  180  A    between atoms: _428  and  _429
REMARK  181  A    between atoms: _432  and  _434
REMARK  182  A    between atoms: _434  and  _435
REMARK  183  A    between atoms: _437  and  _439
REMARK  184  A    between atoms: _439  and  _440
REMARK  185  A    between atoms: _442  and  _444
REMARK  186  A    between atoms: _444  and  _445
REMARK  187  A    between atoms: _444  and  _447
REMARK  188  A    between atoms: _447  and  _448
REMARK  189  A    between atoms: _451  and  _453
REMARK  190  A    between atoms: _453  and  _454
REMARK  191  A    between atoms: _456  and  _458
REMARK  192  A    between atoms: _458  and  _459
REMARK  193  A    between atoms: _461  and  _463
REMARK  194  A    between atoms: _463  and  _464
REMARK  195  A    between atoms: _463  and  _466
REMARK  196  A    between atoms: _466  and  _467
REMARK  197  A    between atoms: _473  and  _475
REMARK  198  A    between atoms: _475  and  _476
REMARK  199  A    between atoms: _475  and  _478
REMARK  200  A    between atoms: _478  and  _479
REMARK  201  A    between atoms: _482  and  _484
REMARK  202  A    between atoms: _484  and  _485
REMARK  203  A    between atoms: _484  and  _487
REMARK  204  A    between atoms: _490  and  _492
REMARK  205  A    between atoms: _492  and  _493
REMARK  206  A    between atoms: _492  and  _495
REMARK  207  A    between atoms: _495  and  _496
REMARK  208  A    between atoms: _499  and  _501
REMARK  209  A    between atoms: _501  and  _502
REMARK  210  A    between atoms: _501  and  _504
REMARK  211  A    between atoms: _504  and  _505
REMARK  212  A    between atoms: _509  and  _510
REMARK  213  A    between atoms: _515  and  _517
REMARK  214  A    between atoms: _517  and  _518
REMARK  215  A    between atoms: _517  and  _520
REMARK  216  A    between atoms: _523  and  _525
REMARK  217  A    between atoms: _525  and  _526
REMARK  218  A    between atoms: _525  and  _528
REMARK  219  A    between atoms: _528  and  _529
REMARK  220  A    between atoms: _534  and  _536
REMARK  221  A    between atoms: _536  and  _537
REMARK  222  A    between atoms: _536  and  _539
REMARK  223  A    between atoms: _539  and  _540
REMARK  224  A    between atoms: _543  and  _545
REMARK  225  A    between atoms: _545  and  _546
REMARK  226  A    between atoms: _545  and  _548
REMARK  227  A    between atoms: _548  and  _549
REMARK  228  A    between atoms: _552  and  _554
REMARK  229  A    between atoms: _554  and  _555
REMARK  230  A    between atoms: _557  and  _559
REMARK  231  A    between atoms: _559  and  _560
REMARK  232  A    between atoms: _559  and  _562
REMARK  233  A    between atoms: _562  and  _563
REMARK  234  A    between atoms: _563  and  _564
REMARK  235  A    between atoms: _564  and  _565
REMARK  236  A    between atoms: _574  and  _576
REMARK  237  A    between atoms: _576  and  _577
REMARK  238  A    between atoms: _576  and  _579
REMARK  239  A    between atoms: _579  and  _580
REMARK                            x       y       z     vdW  Elec       q    Type
REMARK                         _______ _______ _______ _____ _____    ______ ____
ROOT
ATOM      1  O   HOH     1      30.741  21.915   7.739  0.00  0.00    +0.000 OA
ENDROOT
TORSDOF 0
REMARK  Name = ../refined-set-2016/1sdu/1sdu_pocket.pdb
REMARK  239 active torsions:
REMARK  status: ('A' for Active; 'I' for Inactive)
REMARK    1  A    between atoms: _1  and  _3
REMARK    2  A    between atoms: _3  and  _4
REMARK    3  A    between atoms: _3  and  _6
REMARK    4  A    between atoms: _6  and  _7
REMARK    5  A    between atoms: _7  and  _8
REMARK    6  A    between atoms: _8  and  _9
REMARK    7  A    between atoms: _18  and  _20
REMARK    8  A    between atoms: _20  and  _21
REMARK    9  A    between atoms: _20  and  _23
REMARK   10  A    between atoms: _23  and  _24
REMARK   11  A    between atoms: _27  and  _29
REMARK   12  A    between atoms: _29  and  _30
REMARK   13  A    between atoms: _29  and  _32
REMARK   14  A    between atoms: _32  and  _33
REMARK   15  A    between atoms: _36  and  _38
REMARK   16  A    between atoms: _38  and  _39
REMARK   17  A    between atoms: _38  and  _41
REMARK   18  A    between atoms: _41  and  _42
REMARK   19  A    between atoms: _45  and  _47
REMARK   20  A    between atoms: _47  and  _48
REMARK   21  A    between atoms: _47  and  _50
REMARK   22  A    between atoms: _50  and  _51
REMARK   23  A    between atoms: _54  and  _56
REMARK   24  A    between atoms: _56  and  _57
REMARK   25  A    between atoms: _56  and  _59
REMARK   26  A    between atoms: _59  and  _60
REMARK   27  A    between atoms: _63  and  _65
REMARK   28  A    between atoms: _65  and  _66
REMARK   29  A    between atoms: _68  and  _70
REMARK   30  A    between atoms: _70  and  _71
REMARK   31  A    between atoms: _74  and  _76
REMARK   32  A    between atoms: _76  and  _77
REMARK   33  A    between atoms: _76  and  _79
REMARK   34  A    between atoms: _79  and  _80
REMARK   35  A    between atoms: _83  and  _85
REMARK   36  A    between atoms: _85  and  _86
REMARK   37  A    between atoms: _85  and  _88
REMARK   38  A    between atoms: _88  and  _89
REMARK   39  A    between atoms: _92  and  _94
REMARK   40  A    between atoms: _94  and  _95
REMARK   41  A    between atoms: _94  and  _97
REMARK   42  A    between atoms: _97  and  _98
REMARK   43  A    between atoms: _101  and  _103
REMARK   44  A    between atoms: _103  and  _104
REMARK   45  A    between atoms: _103  and  _106
REMARK   46  A    between atoms: _109  and  _111
REMARK   47  A    between atoms: _111  and  _112
REMARK   48  A    between atoms: _111  and  _114
REMARK   49  A    between atoms: _115  and  _116
REMARK   50  A    between atoms: _116  and  _117
REMARK   51  A    between atoms: _117  and  _118
REMARK   52  A    between atoms: _122  and  _124
REMARK   53  A    between atoms: _124  and  _125
REMARK   54  A    between atoms: _124  and  _127
REMARK   55  A    between atoms: _127  and  _128
REMARK   56  A    between atoms: _128  and  _129
REMARK   57  A    between atoms: _131  and  _133
REMARK   58  A    between atoms: _133  and  _134
REMARK   59  A    between atoms: _133  and  _136
REMARK   60  A    between atoms: _136  and  _137
REMARK   61  A    between atoms: _140  and  _142
REMARK   62  A    between atoms: _142  and  _143
REMARK   63  A    between atoms: _145  and  _147
REMARK   64  A    between atoms: _147  and  _148
REMARK   65  A    between atoms: _150  and  _152
REMARK   66  A    between atoms: _152  and  _153
REMARK   67  A    between atoms: _152  and  _155
REMARK   68  A    between atoms: _155  and  _156
REMARK   69  A    between atoms: _159  and  _161
REMARK   70  A    between atoms: _161  and  _162
REMARK   71  A    between atoms: _164  and  _166
REMARK   72  A    between atoms: _166  and  _167
REMARK   73  A    between atoms: _169  and  _171
REMARK   74  A    between atoms: _171  and  _172
REMARK   75  A    between atoms: _171  and  _174
REMARK   76  A    between atoms: _174  and  _175
REMARK   77  A    between atoms: _181  and  _183
REMARK   78  A    between atoms: _183  and  _184
REMARK   79  A    between atoms: _183  and  _186
REMARK   80  A    between atoms: _186  and  _187
REMARK   81  A    between atoms: _190  and  _192
REMARK   82  A    between atoms: _192  and  _193
REMARK   83  A    between atoms: _192  and  _195
REMARK   84  A    between atoms: _198  and  _200
REMARK   85  A    between atoms: _200  and  _201
REMARK   86  A    between atoms: _200  and  _203
REMARK   87  A    between atoms: _203  and  _204
REMARK   88  A    between atoms: _207  and  _209
REMARK   89  A    between atoms: _209  and  _210
REMARK   90  A    between atoms: _209  and  _212
REMARK   91  A    between atoms: _212  and  _213
REMARK   92  A    between atoms: _217  and  _218
REMARK   93  A    between atoms: _223  and  _225
REMARK   94  A    between atoms: _225  and  _226
REMARK   95  A    between atoms: _225  and  _228
REMARK   96  A    between atoms: _231  and  _233
REMARK   97  A    between atoms: _233  and  _234
REMARK   98  A    between atoms: _233  and  _236
REMARK   99  A    between atoms: _236  and  _237
REMARK  100  A    between atoms: _242  and  _244
REMARK  101  A    between atoms: _244  and  _245
REMARK  102  A    between atoms: _244  and  _247
REMARK  103  A    between atoms: _247  and  _248
REMARK  104  A    between atoms: _251  and  _253
REMARK  105  A    between atoms: _253  and  _254
REMARK  106  A    between atoms: _253  and  _256
REMARK  107  A    between atoms: _256  and  _257
REMARK  108  A    between atoms: _260  and  _262
REMARK  109  A    between atoms: _262  and  _263
REMARK  110  A    between atoms: _265  and  _267
REMARK  111  A    between atoms: _267  and  _268
REMARK  112  A    between atoms: _267  and  _270
REMARK  113  A    between atoms: _270  and  _271
REMARK  114  A    between atoms: _271  and  _272
REMARK  115  A    between atoms: _272  and  _273
REMARK  116  A    between atoms: _282  and  _284
REMARK  117  A    between atoms: _284  and  _285
REMARK  118  A    between atoms: _284  and  _287
REMARK  119  A    between atoms: _287  and  _288
REMARK  120  A    between atoms: _293  and  _295
REMARK  121  A    between atoms: _295  and  _296
REMARK  122  A    between atoms: _295  and  _298
REMARK  123  A    between atoms: _298  and  _299
REMARK  124  A    between atoms: _299  and  _300
REMARK  125  A    between atoms: _300  and  _301
REMARK  126  A    between atoms: _310  and  _312
REMARK  127  A    between atoms: _312  and  _313
REMARK  128  A    between atoms: _312  and  _315
REMARK  129  A    between atoms: _315  and  _316
REMARK  130  A    between atoms: _319  and  _321
REMARK  131  A    between atoms: _321  and  _322
REMARK  132  A    between atoms: _321  and  _324
REMARK  133  A    between atoms: _324  and  _325
REMARK  134  A    between atoms: _328  and  _330
REMARK  135  A    between atoms: _330  and  _331
REMARK  136  A    between atoms: _330  and  _333
REMARK  137  A    between atoms: _333  and  _334
REMARK  138  A    between atoms: _337  and  _339
REMARK  139  A    between atoms: _339  and  _340
REMARK  140  A    between atoms: _339  and  _342
REMARK  141  A    between atoms: _342  and  _343
REMARK  142  A    between atoms: _346  and  _348
REMARK  143  A    between atoms: _348  and  _349
REMARK  144  A    between atoms: _351  and  _353
REMARK  145  A    between atoms: _353  and  _354
REMARK  146  A    between atoms: _357  and  _359
REMARK  147  A    between atoms: _359  and  _360
REMARK  148  A    between atoms: _359  and  _362
REMARK  149  A    between atoms: _362  and  _363
REMARK  150  A    between atoms: _366  and  _368
REMARK  151  A    between atoms: _368  and  _369
REMARK  152  A    between atoms: _368  and  _371
REMARK  153  A    between atoms: _371  and  _372
REMARK  154  A    between atoms: _375  and  _377
REMARK  155  A    between atoms: _377  and  _378
REMARK  156  A    between atoms: _377  and  _380
REMARK  157  A    between atoms: _380  and  _381
REMARK  158  A    between atoms: _384  and  _386
REMARK  159  A    between atoms: _386  and  _387
REMARK  160  A    between atoms: _386  and  _389
REMARK  161  A    between atoms: _392  and  _394
REMARK  162  A    between atoms: _394  and  _395
REMARK  163  A    between atoms: _394  and  _397
REMARK  164  A    between atoms: _397  and  _398
REMARK  165  A    between atoms: _401  and  _403
REMARK  166  A    between atoms: _403  and  _404
REMARK  167  A    between atoms: _403  and  _406
REMARK  168  A    between atoms: _406  and  _407
REMARK  169  A    between atoms: _407  and  _408
REMARK  170  A    between atoms: _408  and  _409
REMARK  171  A    between atoms: _409  and  _410
REMARK  172  A    between atoms: _414  and  _416
REMARK  173  A    between atoms: _416  and  _417
REMARK  174  A    between atoms: _416  and  _419
REMARK  175  A    between atoms: _419  and  _420
REMARK  176  A    between atoms: _420  and  _421
REMARK  177  A    between atoms: _423  and  _425
REMARK  178  A    between atoms: _425  and  _426
REMARK  179  A    between atoms: _425  and  _428
REMARK  180  A    between atoms: _428  and  _429
REMARK  181  A    between atoms: _432  and  _434
REMARK  182  A    between atoms: _434  and  _435
REMARK  183  A    between atoms: _437  and  _439
REMARK  184  A    between atoms: _439  and  _440
REMARK  185  A    between atoms: _442  and  _444
REMARK  186  A    between atoms: _444  and  _445
REMARK  187  A    between atoms: _444  and  _447
REMARK  188  A    between atoms: _447  and  _448
REMARK  189  A    between atoms: _451  and  _453
REMARK  190  A    between atoms: _453  and  _454
REMARK  191  A    between atoms: _456  and  _458
REMARK  192  A    between atoms: _458  and  _459
REMARK  193  A    between atoms: _461  and  _463
REMARK  194  A    between atoms: _463  and  _464
REMARK  195  A    between atoms: _463  and  _466
REMARK  196  A    between atoms: _466  and  _467
REMARK  197  A    between atoms: _473  and  _475
REMARK  198  A    between atoms: _475  and  _476
REMARK  199  A    between atoms: _475  and  _478
REMARK  200  A    between atoms: _478  and  _479
REMARK  201  A    between atoms: _482  and  _484
REMARK  202  A    between atoms: _484  and  _485
REMARK  203  A    between atoms: _484  and  _487
REMARK  204  A    between atoms: _490  and  _492
REMARK  205  A    between atoms: _492  and  _493
REMARK  206  A    between atoms: _492  and  _495
REMARK  207  A    between atoms: _495  and  _496
REMARK  208  A    between atoms: _499  and  _501
REMARK  209  A    between atoms: _501  and  _502
REMARK  210  A    between atoms: _501  and  _504
REMARK  211  A    between atoms: _504  and  _505
REMARK  212  A    between atoms: _509  and  _510
REMARK  213  A    between atoms: _515  and  _517
REMARK  214  A    between atoms: _517  and  _518
REMARK  215  A    between atoms: _517  and  _520
REMARK  216  A    between atoms: _523  and  _525
REMARK  217  A    between atoms: _525  and  _526
REMARK  218  A    between atoms: _525  and  _528
REMARK  219  A    between atoms: _528  and  _529
REMARK  220  A    between atoms: _534  and  _536
REMARK  221  A    between atoms: _536  and  _537
REMARK  222  A    between atoms: _536  and  _539
REMARK  223  A    between atoms: _539  and  _540
REMARK  224  A    between atoms: _543  and  _545
REMARK  225  A    between atoms: _545  and  _546
REMARK  226  A    between atoms: _545  and  _548
REMARK  227  A    between atoms: _548  and  _549
REMARK  228  A    between atoms: _552  and  _554
REMARK  229  A    between atoms: _554  and  _555
REMARK  230  A    between atoms: _557  and  _559
REMARK  231  A    between atoms: _559  and  _560
REMARK  232  A    between atoms: _559  and  _562
REMARK  233  A    between atoms: _562  and  _563
REMARK  234  A    between atoms: _563  and  _564
REMARK  235  A    between atoms: _564  and  _565
REMARK  236  A    between atoms: _574  and  _576
REMARK  237  A    between atoms: _576  and  _577
REMARK  238  A    between atoms: _576  and  _579
REMARK  239  A    between atoms: _579  and  _580
REMARK                            x       y       z     vdW  Elec       q    Type
REMARK                         _______ _______ _______ _____ _____    ______ ____
ROOT
ATOM      1  O   HOH     1      26.225  37.446  22.516  0.00  0.00    +0.000 OA
ENDROOT
TORSDOF 0
REMARK  Name = ../refined-set-2016/1sdu/1sdu_pocket.pdb
REMARK  239 active torsions:
REMARK  status: ('A' for Active; 'I' for Inactive)
REMARK    1  A    between atoms: _1  and  _3
REMARK    2  A    between atoms: _3  and  _4
REMARK    3  A    between atoms: _3  and  _6
REMARK    4  A    between atoms: _6  and  _7
REMARK    5  A    between atoms: _7  and  _8
REMARK    6  A    between atoms: _8  and  _9
REMARK    7  A    between atoms: _18  and  _20
REMARK    8  A    between atoms: _20  and  _21
REMARK    9  A    between atoms: _20  and  _23
REMARK   10  A    between atoms: _23  and  _24
REMARK   11  A    between atoms: _27  and  _29
REMARK   12  A    between atoms: _29  and  _30
REMARK   13  A    between atoms: _29  and  _32
REMARK   14  A    between atoms: _32  and  _33
REMARK   15  A    between atoms: _36  and  _38
REMARK   16  A    between atoms: _38  and  _39
REMARK   17  A    between atoms: _38  and  _41
REMARK   18  A    between atoms: _41  and  _42
REMARK   19  A    between atoms: _45  and  _47
REMARK   20  A    between atoms: _47  and  _48
REMARK   21  A    between atoms: _47  and  _50
REMARK   22  A    between atoms: _50  and  _51
REMARK   23  A    between atoms: _54  and  _56
REMARK   24  A    between atoms: _56  and  _57
REMARK   25  A    between atoms: _56  and  _59
REMARK   26  A    between atoms: _59  and  _60
REMARK   27  A    between atoms: _63  and  _65
REMARK   28  A    between atoms: _65  and  _66
REMARK   29  A    between atoms: _68  and  _70
REMARK   30  A    between atoms: _70  and  _71
REMARK   31  A    between atoms: _74  and  _76
REMARK   32  A    between atoms: _76  and  _77
REMARK   33  A    between atoms: _76  and  _79
REMARK   34  A    between atoms: _79  and  _80
REMARK   35  A    between atoms: _83  and  _85
REMARK   36  A    between atoms: _85  and  _86
REMARK   37  A    between atoms: _85  and  _88
REMARK   38  A    between atoms: _88  and  _89
REMARK   39  A    between atoms: _92  and  _94
REMARK   40  A    between atoms: _94  and  _95
REMARK   41  A    between atoms: _94  and  _97
REMARK   42  A    between atoms: _97  and  _98
REMARK   43  A    between atoms: _101  and  _103
REMARK   44  A    between atoms: _103  and  _104
REMARK   45  A    between atoms: _103  and  _106
REMARK   46  A    between atoms: _109  and  _111
REMARK   47  A    between atoms: _111  and  _112
REMARK   48  A    between atoms: _111  and  _114
REMARK   49  A    between atoms: _115  and  _116
REMARK   50  A    between atoms: _116  and  _117
REMARK   51  A    between atoms: _117  and  _118
REMARK   52  A    between atoms: _122  and  _124
REMARK   53  A    between atoms: _124  and  _125
REMARK   54  A    between atoms: _124  and  _127
REMARK   55  A    between atoms: _127  and  _128
REMARK   56  A    between atoms: _128  and  _129
REMARK   57  A    between atoms: _131  and  _133
REMARK   58  A    between atoms: _133  and  _134
REMARK   59  A    between atoms: _133  and  _136
REMARK   60  A    between atoms: _136  and  _137
REMARK   61  A    between atoms: _140  and  _142
REMARK   62  A    between atoms: _142  and  _143
REMARK   63  A    between atoms: _145  and  _147
REMARK   64  A    between atoms: _147  and  _148
REMARK   65  A    between atoms: _150  and  _152
REMARK   66  A    between atoms: _152  and  _153
REMARK   67  A    between atoms: _152  and  _155
REMARK   68  A    between atoms: _155  and  _156
REMARK   69  A    between atoms: _159  and  _161
REMARK   70  A    between atoms: _161  and  _162
REMARK   71  A    between atoms: _164  and  _166
REMARK   72  A    between atoms: _166  and  _167
REMARK   73  A    between atoms: _169  and  _171
REMARK   74  A    between atoms: _171  and  _172
REMARK   75  A    between atoms: _171  and  _174
REMARK   76  A    between atoms: _174  and  _175
REMARK   77  A    between atoms: _181  and  _183
REMARK   78  A    between atoms: _183  and  _184
REMARK   79  A    between atoms: _183  and  _186
REMARK   80  A    between atoms: _186  and  _187
REMARK   81  A    between atoms: _190  and  _192
REMARK   82  A    between atoms: _192  and  _193
REMARK   83  A    between atoms: _192  and  _195
REMARK   84  A    between atoms: _198  and  _200
REMARK   85  A    between atoms: _200  and  _201
REMARK   86  A    between atoms: _200  and  _203
REMARK   87  A    between atoms: _203  and  _204
REMARK   88  A    between atoms: _207  and  _209
REMARK   89  A    between atoms: _209  and  _210
REMARK   90  A    between atoms: _209  and  _212
REMARK   91  A    between atoms: _212  and  _213
REMARK   92  A    between atoms: _217  and  _218
REMARK   93  A    between atoms: _223  and  _225
REMARK   94  A    between atoms: _225  and  _226
REMARK   95  A    between atoms: _225  and  _228
REMARK   96  A    between atoms: _231  and  _233
REMARK   97  A    between atoms: _233  and  _234
REMARK   98  A    between atoms: _233  and  _236
REMARK   99  A    between atoms: _236  and  _237
REMARK  100  A    between atoms: _242  and  _244
REMARK  101  A    between atoms: _244  and  _245
REMARK  102  A    between atoms: _244  and  _247
REMARK  103  A    between atoms: _247  and  _248
REMARK  104  A    between atoms: _251  and  _253
REMARK  105  A    between atoms: _253  and  _254
REMARK  106  A    between atoms: _253  and  _256
REMARK  107  A    between atoms: _256  and  _257
REMARK  108  A    between atoms: _260  and  _262
REMARK  109  A    between atoms: _262  and  _263
REMARK  110  A    between atoms: _265  and  _267
REMARK  111  A    between atoms: _267  and  _268
REMARK  112  A    between atoms: _267  and  _270
REMARK  113  A    between atoms: _270  and  _271
REMARK  114  A    between atoms: _271  and  _272
REMARK  115  A    between atoms: _272  and  _273
REMARK  116  A    between atoms: _282  and  _284
REMARK  117  A    between atoms: _284  and  _285
REMARK  118  A    between atoms: _284  and  _287
REMARK  119  A    between atoms: _287  and  _288
REMARK  120  A    between atoms: _293  and  _295
REMARK  121  A    between atoms: _295  and  _296
REMARK  122  A    between atoms: _295  and  _298
REMARK  123  A    between atoms: _298  and  _299
REMARK  124  A    between atoms: _299  and  _300
REMARK  125  A    between atoms: _300  and  _301
REMARK  126  A    between atoms: _310  and  _312
REMARK  127  A    between atoms: _312  and  _313
REMARK  128  A    between atoms: _312  and  _315
REMARK  129  A    between atoms: _315  and  _316
REMARK  130  A    between atoms: _319  and  _321
REMARK  131  A    between atoms: _321  and  _322
REMARK  132  A    between atoms: _321  and  _324
REMARK  133  A    between atoms: _324  and  _325
REMARK  134  A    between atoms: _328  and  _330
REMARK  135  A    between atoms: _330  and  _331
REMARK  136  A    between atoms: _330  and  _333
REMARK  137  A    between atoms: _333  and  _334
REMARK  138  A    between atoms: _337  and  _339
REMARK  139  A    between atoms: _339  and  _340
REMARK  140  A    between atoms: _339  and  _342
REMARK  141  A    between atoms: _342  and  _343
REMARK  142  A    between atoms: _346  and  _348
REMARK  143  A    between atoms: _348  and  _349
REMARK  144  A    between atoms: _351  and  _353
REMARK  145  A    between atoms: _353  and  _354
REMARK  146  A    between atoms: _357  and  _359
REMARK  147  A    between atoms: _359  and  _360
REMARK  148  A    between atoms: _359  and  _362
REMARK  149  A    between atoms: _362  and  _363
REMARK  150  A    between atoms: _366  and  _368
REMARK  151  A    between atoms: _368  and  _369
REMARK  152  A    between atoms: _368  and  _371
REMARK  153  A    between atoms: _371  and  _372
REMARK  154  A    between atoms: _375  and  _377
REMARK  155  A    between atoms: _377  and  _378
REMARK  156  A    between atoms: _377  and  _380
REMARK  157  A    between atoms: _380  and  _381
REMARK  158  A    between atoms: _384  and  _386
REMARK  159  A    between atoms: _386  and  _387
REMARK  160  A    between atoms: _386  and  _389
REMARK  161  A    between atoms: _392  and  _394
REMARK  162  A    between atoms: _394  and  _395
REMARK  163  A    between atoms: _394  and  _397
REMARK  164  A    between atoms: _397  and  _398
REMARK  165  A    between atoms: _401  and  _403
REMARK  166  A    between atoms: _403  and  _404
REMARK  167  A    between atoms: _403  and  _406
REMARK  168  A    between atoms: _406  and  _407
REMARK  169  A    between atoms: _407  and  _408
REMARK  170  A    between atoms: _408  and  _409
REMARK  171  A    between atoms: _409  and  _410
REMARK  172  A    between atoms: _414  and  _416
REMARK  173  A    between atoms: _416  and  _417
REMARK  174  A    between atoms: _416  and  _419
REMARK  175  A    between atoms: _419  and  _420
REMARK  176  A    between atoms: _420  and  _421
REMARK  177  A    between atoms: _423  and  _425
REMARK  178  A    between atoms: _425  and  _426
REMARK  179  A    between atoms: _425  and  _428
REMARK  180  A    between atoms: _428  and  _429
REMARK  181  A    between atoms: _432  and  _434
REMARK  182  A    between atoms: _434  and  _435
REMARK  183  A    between atoms: _437  and  _439
REMARK  184  A    between atoms: _439  and  _440
REMARK  185  A    between atoms: _442  and  _444
REMARK  186  A    between atoms: _444  and  _445
REMARK  187  A    between atoms: _444  and  _447
REMARK  188  A    between atoms: _447  and  _448
REMARK  189  A    between atoms: _451  and  _453
REMARK  190  A    between atoms: _453  and  _454
REMARK  191  A    between atoms: _456  and  _458
REMARK  192  A    between atoms: _458  and  _459
REMARK  193  A    between atoms: _461  and  _463
REMARK  194  A    between atoms: _463  and  _464
REMARK  195  A    between atoms: _463  and  _466
REMARK  196  A    between atoms: _466  and  _467
REMARK  197  A    between atoms: _473  and  _475
REMARK  198  A    between atoms: _475  and  _476
REMARK  199  A    between atoms: _475  and  _478
REMARK  200  A    between atoms: _478  and  _479
REMARK  201  A    between atoms: _482  and  _484
REMARK  202  A    between atoms: _484  and  _485
REMARK  203  A    between atoms: _484  and  _487
REMARK  204  A    between atoms: _490  and  _492
REMARK  205  A    between atoms: _492  and  _493
REMARK  206  A    between atoms: _492  and  _495
REMARK  207  A    between atoms: _495  and  _496
REMARK  208  A    between atoms: _499  and  _501
REMARK  209  A    between atoms: _501  and  _502
REMARK  210  A    between atoms: _501  and  _504
REMARK  211  A    between atoms: _504  and  _505
REMARK  212  A    between atoms: _509  and  _510
REMARK  213  A    between atoms: _515  and  _517
REMARK  214  A    between atoms: _517  and  _518
REMARK  215  A    between atoms: _517  and  _520
REMARK  216  A    between atoms: _523  and  _525
REMARK  217  A    between atoms: _525  and  _526
REMARK  218  A    between atoms: _525  and  _528
REMARK  219  A    between atoms: _528  and  _529
REMARK  220  A    between atoms: _534  and  _536
REMARK  221  A    between atoms: _536  and  _537
REMARK  222  A    between atoms: _536  and  _539
REMARK  223  A    between atoms: _539  and  _540
REMARK  224  A    between atoms: _543  and  _545
REMARK  225  A    between atoms: _545  and  _546
REMARK  226  A    between atoms: _545  and  _548
REMARK  227  A    between atoms: _548  and  _549
REMARK  228  A    between atoms: _552  and  _554
REMARK  229  A    between atoms: _554  and  _555
REMARK  230  A    between atoms: _557  and  _559
REMARK  231  A    between atoms: _559  and  _560
REMARK  232  A    between atoms: _559  and  _562
REMARK  233  A    between atoms: _562  and  _563
REMARK  234  A    between atoms: _563  and  _564
REMARK  235  A    between atoms: _564  and  _565
REMARK  236  A    between atoms: _574  and  _576
REMARK  237  A    between atoms: _576  and  _577
REMARK  238  A    between atoms: _576  and  _579
REMARK  239  A    between atoms: _579  and  _580
REMARK                            x       y       z     vdW  Elec       q    Type
REMARK                         _______ _______ _______ _____ _____    ______ ____
ROOT
ATOM      1  O   HOH     1      28.833  37.452  22.291  0.00  0.00    +0.000 OA
ENDROOT
TORSDOF 0
REMARK  Name = ../refined-set-2016/1sdu/1sdu_pocket.pdb
REMARK  239 active torsions:
REMARK  status: ('A' for Active; 'I' for Inactive)
REMARK    1  A    between atoms: _1  and  _3
REMARK    2  A    between atoms: _3  and  _4
REMARK    3  A    between atoms: _3  and  _6
REMARK    4  A    between atoms: _6  and  _7
REMARK    5  A    between atoms: _7  and  _8
REMARK    6  A    between atoms: _8  and  _9
REMARK    7  A    between atoms: _18  and  _20
REMARK    8  A    between atoms: _20  and  _21
REMARK    9  A    between atoms: _20  and  _23
REMARK   10  A    between atoms: _23  and  _24
REMARK   11  A    between atoms: _27  and  _29
REMARK   12  A    between atoms: _29  and  _30
REMARK   13  A    between atoms: _29  and  _32
REMARK   14  A    between atoms: _32  and  _33
REMARK   15  A    between atoms: _36  and  _38
REMARK   16  A    between atoms: _38  and  _39
REMARK   17  A    between atoms: _38  and  _41
REMARK   18  A    between atoms: _41  and  _42
REMARK   19  A    between atoms: _45  and  _47
REMARK   20  A    between atoms: _47  and  _48
REMARK   21  A    between atoms: _47  and  _50
REMARK   22  A    between atoms: _50  and  _51
REMARK   23  A    between atoms: _54  and  _56
REMARK   24  A    between atoms: _56  and  _57
REMARK   25  A    between atoms: _56  and  _59
REMARK   26  A    between atoms: _59  and  _60
REMARK   27  A    between atoms: _63  and  _65
REMARK   28  A    between atoms: _65  and  _66
REMARK   29  A    between atoms: _68  and  _70
REMARK   30  A    between atoms: _70  and  _71
REMARK   31  A    between atoms: _74  and  _76
REMARK   32  A    between atoms: _76  and  _77
REMARK   33  A    between atoms: _76  and  _79
REMARK   34  A    between atoms: _79  and  _80
REMARK   35  A    between atoms: _83  and  _85
REMARK   36  A    between atoms: _85  and  _86
REMARK   37  A    between atoms: _85  and  _88
REMARK   38  A    between atoms: _88  and  _89
REMARK   39  A    between atoms: _92  and  _94
REMARK   40  A    between atoms: _94  and  _95
REMARK   41  A    between atoms: _94  and  _97
REMARK   42  A    between atoms: _97  and  _98
REMARK   43  A    between atoms: _101  and  _103
REMARK   44  A    between atoms: _103  and  _104
REMARK   45  A    between atoms: _103  and  _106
REMARK   46  A    between atoms: _109  and  _111
REMARK   47  A    between atoms: _111  and  _112
REMARK   48  A    between atoms: _111  and  _114
REMARK   49  A    between atoms: _115  and  _116
REMARK   50  A    between atoms: _116  and  _117
REMARK   51  A    between atoms: _117  and  _118
REMARK   52  A    between atoms: _122  and  _124
REMARK   53  A    between atoms: _124  and  _125
REMARK   54  A    between atoms: _124  and  _127
REMARK   55  A    between atoms: _127  and  _128
REMARK   56  A    between atoms: _128  and  _129
REMARK   57  A    between atoms: _131  and  _133
REMARK   58  A    between atoms: _133  and  _134
REMARK   59  A    between atoms: _133  and  _136
REMARK   60  A    between atoms: _136  and  _137
REMARK   61  A    between atoms: _140  and  _142
REMARK   62  A    between atoms: _142  and  _143
REMARK   63  A    between atoms: _145  and  _147
REMARK   64  A    between atoms: _147  and  _148
REMARK   65  A    between atoms: _150  and  _152
REMARK   66  A    between atoms: _152  and  _153
REMARK   67  A    between atoms: _152  and  _155
REMARK   68  A    between atoms: _155  and  _156
REMARK   69  A    between atoms: _159  and  _161
REMARK   70  A    between atoms: _161  and  _162
REMARK   71  A    between atoms: _164  and  _166
REMARK   72  A    between atoms: _166  and  _167
REMARK   73  A    between atoms: _169  and  _171
REMARK   74  A    between atoms: _171  and  _172
REMARK   75  A    between atoms: _171  and  _174
REMARK   76  A    between atoms: _174  and  _175
REMARK   77  A    between atoms: _181  and  _183
REMARK   78  A    between atoms: _183  and  _184
REMARK   79  A    between atoms: _183  and  _186
REMARK   80  A    between atoms: _186  and  _187
REMARK   81  A    between atoms: _190  and  _192
REMARK   82  A    between atoms: _192  and  _193
REMARK   83  A    between atoms: _192  and  _195
REMARK   84  A    between atoms: _198  and  _200
REMARK   85  A    between atoms: _200  and  _201
REMARK   86  A    between atoms: _200  and  _203
REMARK   87  A    between atoms: _203  and  _204
REMARK   88  A    between atoms: _207  and  _209
REMARK   89  A    between atoms: _209  and  _210
REMARK   90  A    between atoms: _209  and  _212
REMARK   91  A    between atoms: _212  and  _213
REMARK   92  A    between atoms: _217  and  _218
REMARK   93  A    between atoms: _223  and  _225
REMARK   94  A    between atoms: _225  and  _226
REMARK   95  A    between atoms: _225  and  _228
REMARK   96  A    between atoms: _231  and  _233
REMARK   97  A    between atoms: _233  and  _234
REMARK   98  A    between atoms: _233  and  _236
REMARK   99  A    between atoms: _236  and  _237
REMARK  100  A    between atoms: _242  and  _244
REMARK  101  A    between atoms: _244  and  _245
REMARK  102  A    between atoms: _244  and  _247
REMARK  103  A    between atoms: _247  and  _248
REMARK  104  A    between atoms: _251  and  _253
REMARK  105  A    between atoms: _253  and  _254
REMARK  106  A    between atoms: _253  and  _256
REMARK  107  A    between atoms: _256  and  _257
REMARK  108  A    between atoms: _260  and  _262
REMARK  109  A    between atoms: _262  and  _263
REMARK  110  A    between atoms: _265  and  _267
REMARK  111  A    between atoms: _267  and  _268
REMARK  112  A    between atoms: _267  and  _270
REMARK  113  A    between atoms: _270  and  _271
REMARK  114  A    between atoms: _271  and  _272
REMARK  115  A    between atoms: _272  and  _273
REMARK  116  A    between atoms: _282  and  _284
REMARK  117  A    between atoms: _284  and  _285
REMARK  118  A    between atoms: _284  and  _287
REMARK  119  A    between atoms: _287  and  _288
REMARK  120  A    between atoms: _293  and  _295
REMARK  121  A    between atoms: _295  and  _296
REMARK  122  A    between atoms: _295  and  _298
REMARK  123  A    between atoms: _298  and  _299
REMARK  124  A    between atoms: _299  and  _300
REMARK  125  A    between atoms: _300  and  _301
REMARK  126  A    between atoms: _310  and  _312
REMARK  127  A    between atoms: _312  and  _313
REMARK  128  A    between atoms: _312  and  _315
REMARK  129  A    between atoms: _315  and  _316
REMARK  130  A    between atoms: _319  and  _321
REMARK  131  A    between atoms: _321  and  _322
REMARK  132  A    between atoms: _321  and  _324
REMARK  133  A    between atoms: _324  and  _325
REMARK  134  A    between atoms: _328  and  _330
REMARK  135  A    between atoms: _330  and  _331
REMARK  136  A    between atoms: _330  and  _333
REMARK  137  A    between atoms: _333  and  _334
REMARK  138  A    between atoms: _337  and  _339
REMARK  139  A    between atoms: _339  and  _340
REMARK  140  A    between atoms: _339  and  _342
REMARK  141  A    between atoms: _342  and  _343
REMARK  142  A    between atoms: _346  and  _348
REMARK  143  A    between atoms: _348  and  _349
REMARK  144  A    between atoms: _351  and  _353
REMARK  145  A    between atoms: _353  and  _354
REMARK  146  A    between atoms: _357  and  _359
REMARK  147  A    between atoms: _359  and  _360
REMARK  148  A    between atoms: _359  and  _362
REMARK  149  A    between atoms: _362  and  _363
REMARK  150  A    between atoms: _366  and  _368
REMARK  151  A    between atoms: _368  and  _369
REMARK  152  A    between atoms: _368  and  _371
REMARK  153  A    between atoms: _371  and  _372
REMARK  154  A    between atoms: _375  and  _377
REMARK  155  A    between atoms: _377  and  _378
REMARK  156  A    between atoms: _377  and  _380
REMARK  157  A    between atoms: _380  and  _381
REMARK  158  A    between atoms: _384  and  _386
REMARK  159  A    between atoms: _386  and  _387
REMARK  160  A    between atoms: _386  and  _389
REMARK  161  A    between atoms: _392  and  _394
REMARK  162  A    between atoms: _394  and  _395
REMARK  163  A    between atoms: _394  and  _397
REMARK  164  A    between atoms: _397  and  _398
REMARK  165  A    between atoms: _401  and  _403
REMARK  166  A    between atoms: _403  and  _404
REMARK  167  A    between atoms: _403  and  _406
REMARK  168  A    between atoms: _406  and  _407
REMARK  169  A    between atoms: _407  and  _408
REMARK  170  A    between atoms: _408  and  _409
REMARK  171  A    between atoms: _409  and  _410
REMARK  172  A    between atoms: _414  and  _416
REMARK  173  A    between atoms: _416  and  _417
REMARK  174  A    between atoms: _416  and  _419
REMARK  175  A    between atoms: _419  and  _420
REMARK  176  A    between atoms: _420  and  _421
REMARK  177  A    between atoms: _423  and  _425
REMARK  178  A    between atoms: _425  and  _426
REMARK  179  A    between atoms: _425  and  _428
REMARK  180  A    between atoms: _428  and  _429
REMARK  181  A    between atoms: _432  and  _434
REMARK  182  A    between atoms: _434  and  _435
REMARK  183  A    between atoms: _437  and  _439
REMARK  184  A    between atoms: _439  and  _440
REMARK  185  A    between atoms: _442  and  _444
REMARK  186  A    between atoms: _444  and  _445
REMARK  187  A    between atoms: _444  and  _447
REMARK  188  A    between atoms: _447  and  _448
REMARK  189  A    between atoms: _451  and  _453
REMARK  190  A    between atoms: _453  and  _454
REMARK  191  A    between atoms: _456  and  _458
REMARK  192  A    between atoms: _458  and  _459
REMARK  193  A    between atoms: _461  and  _463
REMARK  194  A    between atoms: _463  and  _464
REMARK  195  A    between atoms: _463  and  _466
REMARK  196  A    between atoms: _466  and  _467
REMARK  197  A    between atoms: _473  and  _475
REMARK  198  A    between atoms: _475  and  _476
REMARK  199  A    between atoms: _475  and  _478
REMARK  200  A    between atoms: _478  and  _479
REMARK  201  A    between atoms: _482  and  _484
REMARK  202  A    between atoms: _484  and  _485
REMARK  203  A    between atoms: _484  and  _487
REMARK  204  A    between atoms: _490  and  _492
REMARK  205  A    between atoms: _492  and  _493
REMARK  206  A    between atoms: _492  and  _495
REMARK  207  A    between atoms: _495  and  _496
REMARK  208  A    between atoms: _499  and  _501
REMARK  209  A    between atoms: _501  and  _502
REMARK  210  A    between atoms: _501  and  _504
REMARK  211  A    between atoms: _504  and  _505
REMARK  212  A    between atoms: _509  and  _510
REMARK  213  A    between atoms: _515  and  _517
REMARK  214  A    between atoms: _517  and  _518
REMARK  215  A    between atoms: _517  and  _520
REMARK  216  A    between atoms: _523  and  _525
REMARK  217  A    between atoms: _525  and  _526
REMARK  218  A    between atoms: _525  and  _528
REMARK  219  A    between atoms: _528  and  _529
REMARK  220  A    between atoms: _534  and  _536
REMARK  221  A    between atoms: _536  and  _537
REMARK  222  A    between atoms: _536  and  _539
REMARK  223  A    between atoms: _539  and  _540
REMARK  224  A    between atoms: _543  and  _545
REMARK  225  A    between atoms: _545  and  _546
REMARK  226  A    between atoms: _545  and  _548
REMARK  227  A    between atoms: _548  and  _549
REMARK  228  A    between atoms: _552  and  _554
REMARK  229  A    between atoms: _554  and  _555
REMARK  230  A    between atoms: _557  and  _559
REMARK  231  A    between atoms: _559  and  _560
REMARK  232  A    between atoms: _559  and  _562
REMARK  233  A    between atoms: _562  and  _563
REMARK  234  A    between atoms: _563  and  _564
REMARK  235  A    between atoms: _564  and  _565
REMARK  236  A    between atoms: _574  and  _576
REMARK  237  A    between atoms: _576  and  _577
REMARK  238  A    between atoms: _576  and  _579
REMARK  239  A    between atoms: _579  and  _580
REMARK                            x       y       z     vdW  Elec       q    Type
REMARK                         _______ _______ _______ _____ _____    ______ ____
ROOT
ATOM      1  O   HOH     1      25.621  38.868  24.451  0.00  0.00    +0.000 OA
ENDROOT
TORSDOF 0
REMARK  Name = ../refined-set-2016/1sdu/1sdu_pocket.pdb
REMARK  239 active torsions:
REMARK  status: ('A' for Active; 'I' for Inactive)
REMARK    1  A    between atoms: _1  and  _3
REMARK    2  A    between atoms: _3  and  _4
REMARK    3  A    between atoms: _3  and  _6
REMARK    4  A    between atoms: _6  and  _7
REMARK    5  A    between atoms: _7  and  _8
REMARK    6  A    between atoms: _8  and  _9
REMARK    7  A    between atoms: _18  and  _20
REMARK    8  A    between atoms: _20  and  _21
REMARK    9  A    between atoms: _20  and  _23
REMARK   10  A    between atoms: _23  and  _24
REMARK   11  A    between atoms: _27  and  _29
REMARK   12  A    between atoms: _29  and  _30
REMARK   13  A    between atoms: _29  and  _32
REMARK   14  A    between atoms: _32  and  _33
REMARK   15  A    between atoms: _36  and  _38
REMARK   16  A    between atoms: _38  and  _39
REMARK   17  A    between atoms: _38  and  _41
REMARK   18  A    between atoms: _41  and  _42
REMARK   19  A    between atoms: _45  and  _47
REMARK   20  A    between atoms: _47  and  _48
REMARK   21  A    between atoms: _47  and  _50
REMARK   22  A    between atoms: _50  and  _51
REMARK   23  A    between atoms: _54  and  _56
REMARK   24  A    between atoms: _56  and  _57
REMARK   25  A    between atoms: _56  and  _59
REMARK   26  A    between atoms: _59  and  _60
REMARK   27  A    between atoms: _63  and  _65
REMARK   28  A    between atoms: _65  and  _66
REMARK   29  A    between atoms: _68  and  _70
REMARK   30  A    between atoms: _70  and  _71
REMARK   31  A    between atoms: _74  and  _76
REMARK   32  A    between atoms: _76  and  _77
REMARK   33  A    between atoms: _76  and  _79
REMARK   34  A    between atoms: _79  and  _80
REMARK   35  A    between atoms: _83  and  _85
REMARK   36  A    between atoms: _85  and  _86
REMARK   37  A    between atoms: _85  and  _88
REMARK   38  A    between atoms: _88  and  _89
REMARK   39  A    between atoms: _92  and  _94
REMARK   40  A    between atoms: _94  and  _95
REMARK   41  A    between atoms: _94  and  _97
REMARK   42  A    between atoms: _97  and  _98
REMARK   43  A    between atoms: _101  and  _103
REMARK   44  A    between atoms: _103  and  _104
REMARK   45  A    between atoms: _103  and  _106
REMARK   46  A    between atoms: _109  and  _111
REMARK   47  A    between atoms: _111  and  _112
REMARK   48  A    between atoms: _111  and  _114
REMARK   49  A    between atoms: _115  and  _116
REMARK   50  A    between atoms: _116  and  _117
REMARK   51  A    between atoms: _117  and  _118
REMARK   52  A    between atoms: _122  and  _124
REMARK   53  A    between atoms: _124  and  _125
REMARK   54  A    between atoms: _124  and  _127
REMARK   55  A    between atoms: _127  and  _128
REMARK   56  A    between atoms: _128  and  _129
REMARK   57  A    between atoms: _131  and  _133
REMARK   58  A    between atoms: _133  and  _134
REMARK   59  A    between atoms: _133  and  _136
REMARK   60  A    between atoms: _136  and  _137
REMARK   61  A    between atoms: _140  and  _142
REMARK   62  A    between atoms: _142  and  _143
REMARK   63  A    between atoms: _145  and  _147
REMARK   64  A    between atoms: _147  and  _148
REMARK   65  A    between atoms: _150  and  _152
REMARK   66  A    between atoms: _152  and  _153
REMARK   67  A    between atoms: _152  and  _155
REMARK   68  A    between atoms: _155  and  _156
REMARK   69  A    between atoms: _159  and  _161
REMARK   70  A    between atoms: _161  and  _162
REMARK   71  A    between atoms: _164  and  _166
REMARK   72  A    between atoms: _166  and  _167
REMARK   73  A    between atoms: _169  and  _171
REMARK   74  A    between atoms: _171  and  _172
REMARK   75  A    between atoms: _171  and  _174
REMARK   76  A    between atoms: _174  and  _175
REMARK   77  A    between atoms: _181  and  _183
REMARK   78  A    between atoms: _183  and  _184
REMARK   79  A    between atoms: _183  and  _186
REMARK   80  A    between atoms: _186  and  _187
REMARK   81  A    between atoms: _190  and  _192
REMARK   82  A    between atoms: _192  and  _193
REMARK   83  A    between atoms: _192  and  _195
REMARK   84  A    between atoms: _198  and  _200
REMARK   85  A    between atoms: _200  and  _201
REMARK   86  A    between atoms: _200  and  _203
REMARK   87  A    between atoms: _203  and  _204
REMARK   88  A    between atoms: _207  and  _209
REMARK   89  A    between atoms: _209  and  _210
REMARK   90  A    between atoms: _209  and  _212
REMARK   91  A    between atoms: _212  and  _213
REMARK   92  A    between atoms: _217  and  _218
REMARK   93  A    between atoms: _223  and  _225
REMARK   94  A    between atoms: _225  and  _226
REMARK   95  A    between atoms: _225  and  _228
REMARK   96  A    between atoms: _231  and  _233
REMARK   97  A    between atoms: _233  and  _234
REMARK   98  A    between atoms: _233  and  _236
REMARK   99  A    between atoms: _236  and  _237
REMARK  100  A    between atoms: _242  and  _244
REMARK  101  A    between atoms: _244  and  _245
REMARK  102  A    between atoms: _244  and  _247
REMARK  103  A    between atoms: _247  and  _248
REMARK  104  A    between atoms: _251  and  _253
REMARK  105  A    between atoms: _253  and  _254
REMARK  106  A    between atoms: _253  and  _256
REMARK  107  A    between atoms: _256  and  _257
REMARK  108  A    between atoms: _260  and  _262
REMARK  109  A    between atoms: _262  and  _263
REMARK  110  A    between atoms: _265  and  _267
REMARK  111  A    between atoms: _267  and  _268
REMARK  112  A    between atoms: _267  and  _270
REMARK  113  A    between atoms: _270  and  _271
REMARK  114  A    between atoms: _271  and  _272
REMARK  115  A    between atoms: _272  and  _273
REMARK  116  A    between atoms: _282  and  _284
REMARK  117  A    between atoms: _284  and  _285
REMARK  118  A    between atoms: _284  and  _287
REMARK  119  A    between atoms: _287  and  _288
REMARK  120  A    between atoms: _293  and  _295
REMARK  121  A    between atoms: _295  and  _296
REMARK  122  A    between atoms: _295  and  _298
REMARK  123  A    between atoms: _298  and  _299
REMARK  124  A    between atoms: _299  and  _300
REMARK  125  A    between atoms: _300  and  _301
REMARK  126  A    between atoms: _310  and  _312
REMARK  127  A    between atoms: _312  and  _313
REMARK  128  A    between atoms: _312  and  _315
REMARK  129  A    between atoms: _315  and  _316
REMARK  130  A    between atoms: _319  and  _321
REMARK  131  A    between atoms: _321  and  _322
REMARK  132  A    between atoms: _321  and  _324
REMARK  133  A    between atoms: _324  and  _325
REMARK  134  A    between atoms: _328  and  _330
REMARK  135  A    between atoms: _330  and  _331
REMARK  136  A    between atoms: _330  and  _333
REMARK  137  A    between atoms: _333  and  _334
REMARK  138  A    between atoms: _337  and  _339
REMARK  139  A    between atoms: _339  and  _340
REMARK  140  A    between atoms: _339  and  _342
REMARK  141  A    between atoms: _342  and  _343
REMARK  142  A    between atoms: _346  and  _348
REMARK  143  A    between atoms: _348  and  _349
REMARK  144  A    between atoms: _351  and  _353
REMARK  145  A    between atoms: _353  and  _354
REMARK  146  A    between atoms: _357  and  _359
REMARK  147  A    between atoms: _359  and  _360
REMARK  148  A    between atoms: _359  and  _362
REMARK  149  A    between atoms: _362  and  _363
REMARK  150  A    between atoms: _366  and  _368
REMARK  151  A    between atoms: _368  and  _369
REMARK  152  A    between atoms: _368  and  _371
REMARK  153  A    between atoms: _371  and  _372
REMARK  154  A    between atoms: _375  and  _377
REMARK  155  A    between atoms: _377  and  _378
REMARK  156  A    between atoms: _377  and  _380
REMARK  157  A    between atoms: _380  and  _381
REMARK  158  A    between atoms: _384  and  _386
REMARK  159  A    between atoms: _386  and  _387
REMARK  160  A    between atoms: _386  and  _389
REMARK  161  A    between atoms: _392  and  _394
REMARK  162  A    between atoms: _394  and  _395
REMARK  163  A    between atoms: _394  and  _397
REMARK  164  A    between atoms: _397  and  _398
REMARK  165  A    between atoms: _401  and  _403
REMARK  166  A    between atoms: _403  and  _404
REMARK  167  A    between atoms: _403  and  _406
REMARK  168  A    between atoms: _406  and  _407
REMARK  169  A    between atoms: _407  and  _408
REMARK  170  A    between atoms: _408  and  _409
REMARK  171  A    between atoms: _409  and  _410
REMARK  172  A    between atoms: _414  and  _416
REMARK  173  A    between atoms: _416  and  _417
REMARK  174  A    between atoms: _416  and  _419
REMARK  175  A    between atoms: _419  and  _420
REMARK  176  A    between atoms: _420  and  _421
REMARK  177  A    between atoms: _423  and  _425
REMARK  178  A    between atoms: _425  and  _426
REMARK  179  A    between atoms: _425  and  _428
REMARK  180  A    between atoms: _428  and  _429
REMARK  181  A    between atoms: _432  and  _434
REMARK  182  A    between atoms: _434  and  _435
REMARK  183  A    between atoms: _437  and  _439
REMARK  184  A    between atoms: _439  and  _440
REMARK  185  A    between atoms: _442  and  _444
REMARK  186  A    between atoms: _444  and  _445
REMARK  187  A    between atoms: _444  and  _447
REMARK  188  A    between atoms: _447  and  _448
REMARK  189  A    between atoms: _451  and  _453
REMARK  190  A    between atoms: _453  and  _454
REMARK  191  A    between atoms: _456  and  _458
REMARK  192  A    between atoms: _458  and  _459
REMARK  193  A    between atoms: _461  and  _463
REMARK  194  A    between atoms: _463  and  _464
REMARK  195  A    between atoms: _463  and  _466
REMARK  196  A    between atoms: _466  and  _467
REMARK  197  A    between atoms: _473  and  _475
REMARK  198  A    between atoms: _475  and  _476
REMARK  199  A    between atoms: _475  and  _478
REMARK  200  A    between atoms: _478  and  _479
REMARK  201  A    between atoms: _482  and  _484
REMARK  202  A    between atoms: _484  and  _485
REMARK  203  A    between atoms: _484  and  _487
REMARK  204  A    between atoms: _490  and  _492
REMARK  205  A    between atoms: _492  and  _493
REMARK  206  A    between atoms: _492  and  _495
REMARK  207  A    between atoms: _495  and  _496
REMARK  208  A    between atoms: _499  and  _501
REMARK  209  A    between atoms: _501  and  _502
REMARK  210  A    between atoms: _501  and  _504
REMARK  211  A    between atoms: _504  and  _505
REMARK  212  A    between atoms: _509  and  _510
REMARK  213  A    between atoms: _515  and  _517
REMARK  214  A    between atoms: _517  and  _518
REMARK  215  A    between atoms: _517  and  _520
REMARK  216  A    between atoms: _523  and  _525
REMARK  217  A    between atoms: _525  and  _526
REMARK  218  A    between atoms: _525  and  _528
REMARK  219  A    between atoms: _528  and  _529
REMARK  220  A    between atoms: _534  and  _536
REMARK  221  A    between atoms: _536  and  _537
REMARK  222  A    between atoms: _536  and  _539
REMARK  223  A    between atoms: _539  and  _540
REMARK  224  A    between atoms: _543  and  _545
REMARK  225  A    between atoms: _545  and  _546
REMARK  226  A    between atoms: _545  and  _548
REMARK  227  A    between atoms: _548  and  _549
REMARK  228  A    between atoms: _552  and  _554
REMARK  229  A    between atoms: _554  and  _555
REMARK  230  A    between atoms: _557  and  _559
REMARK  231  A    between atoms: _559  and  _560
REMARK  232  A    between atoms: _559  and  _562
REMARK  233  A    between atoms: _562  and  _563
REMARK  234  A    between atoms: _563  and  _564
REMARK  235  A    between atoms: _564  and  _565
REMARK  236  A    between atoms: _574  and  _576
REMARK  237  A    between atoms: _576  and  _577
REMARK  238  A    between atoms: _576  and  _579
REMARK  239  A    between atoms: _579  and  _580
REMARK                            x       y       z     vdW  Elec       q    Type
REMARK                         _______ _______ _______ _____ _____    ______ ____
ROOT
ATOM      1  O   HOH     1      15.417  33.405   6.576  0.00  0.00    +0.000 OA
ENDROOT
TORSDOF 0
REMARK  Name = ../refined-set-2016/1sdu/1sdu_pocket.pdb
REMARK  239 active torsions:
REMARK  status: ('A' for Active; 'I' for Inactive)
REMARK    1  A    between atoms: _1  and  _3
REMARK    2  A    between atoms: _3  and  _4
REMARK    3  A    between atoms: _3  and  _6
REMARK    4  A    between atoms: _6  and  _7
REMARK    5  A    between atoms: _7  and  _8
REMARK    6  A    between atoms: _8  and  _9
REMARK    7  A    between atoms: _18  and  _20
REMARK    8  A    between atoms: _20  and  _21
REMARK    9  A    between atoms: _20  and  _23
REMARK   10  A    between atoms: _23  and  _24
REMARK   11  A    between atoms: _27  and  _29
REMARK   12  A    between atoms: _29  and  _30
REMARK   13  A    between atoms: _29  and  _32
REMARK   14  A    between atoms: _32  and  _33
REMARK   15  A    between atoms: _36  and  _38
REMARK   16  A    between atoms: _38  and  _39
REMARK   17  A    between atoms: _38  and  _41
REMARK   18  A    between atoms: _41  and  _42
REMARK   19  A    between atoms: _45  and  _47
REMARK   20  A    between atoms: _47  and  _48
REMARK   21  A    between atoms: _47  and  _50
REMARK   22  A    between atoms: _50  and  _51
REMARK   23  A    between atoms: _54  and  _56
REMARK   24  A    between atoms: _56  and  _57
REMARK   25  A    between atoms: _56  and  _59
REMARK   26  A    between atoms: _59  and  _60
REMARK   27  A    between atoms: _63  and  _65
REMARK   28  A    between atoms: _65  and  _66
REMARK   29  A    between atoms: _68  and  _70
REMARK   30  A    between atoms: _70  and  _71
REMARK   31  A    between atoms: _74  and  _76
REMARK   32  A    between atoms: _76  and  _77
REMARK   33  A    between atoms: _76  and  _79
REMARK   34  A    between atoms: _79  and  _80
REMARK   35  A    between atoms: _83  and  _85
REMARK   36  A    between atoms: _85  and  _86
REMARK   37  A    between atoms: _85  and  _88
REMARK   38  A    between atoms: _88  and  _89
REMARK   39  A    between atoms: _92  and  _94
REMARK   40  A    between atoms: _94  and  _95
REMARK   41  A    between atoms: _94  and  _97
REMARK   42  A    between atoms: _97  and  _98
REMARK   43  A    between atoms: _101  and  _103
REMARK   44  A    between atoms: _103  and  _104
REMARK   45  A    between atoms: _103  and  _106
REMARK   46  A    between atoms: _109  and  _111
REMARK   47  A    between atoms: _111  and  _112
REMARK   48  A    between atoms: _111  and  _114
REMARK   49  A    between atoms: _115  and  _116
REMARK   50  A    between atoms: _116  and  _117
REMARK   51  A    between atoms: _117  and  _118
REMARK   52  A    between atoms: _122  and  _124
REMARK   53  A    between atoms: _124  and  _125
REMARK   54  A    between atoms: _124  and  _127
REMARK   55  A    between atoms: _127  and  _128
REMARK   56  A    between atoms: _128  and  _129
REMARK   57  A    between atoms: _131  and  _133
REMARK   58  A    between atoms: _133  and  _134
REMARK   59  A    between atoms: _133  and  _136
REMARK   60  A    between atoms: _136  and  _137
REMARK   61  A    between atoms: _140  and  _142
REMARK   62  A    between atoms: _142  and  _143
REMARK   63  A    between atoms: _145  and  _147
REMARK   64  A    between atoms: _147  and  _148
REMARK   65  A    between atoms: _150  and  _152
REMARK   66  A    between atoms: _152  and  _153
REMARK   67  A    between atoms: _152  and  _155
REMARK   68  A    between atoms: _155  and  _156
REMARK   69  A    between atoms: _159  and  _161
REMARK   70  A    between atoms: _161  and  _162
REMARK   71  A    between atoms: _164  and  _166
REMARK   72  A    between atoms: _166  and  _167
REMARK   73  A    between atoms: _169  and  _171
REMARK   74  A    between atoms: _171  and  _172
REMARK   75  A    between atoms: _171  and  _174
REMARK   76  A    between atoms: _174  and  _175
REMARK   77  A    between atoms: _181  and  _183
REMARK   78  A    between atoms: _183  and  _184
REMARK   79  A    between atoms: _183  and  _186
REMARK   80  A    between atoms: _186  and  _187
REMARK   81  A    between atoms: _190  and  _192
REMARK   82  A    between atoms: _192  and  _193
REMARK   83  A    between atoms: _192  and  _195
REMARK   84  A    between atoms: _198  and  _200
REMARK   85  A    between atoms: _200  and  _201
REMARK   86  A    between atoms: _200  and  _203
REMARK   87  A    between atoms: _203  and  _204
REMARK   88  A    between atoms: _207  and  _209
REMARK   89  A    between atoms: _209  and  _210
REMARK   90  A    between atoms: _209  and  _212
REMARK   91  A    between atoms: _212  and  _213
REMARK   92  A    between atoms: _217  and  _218
REMARK   93  A    between atoms: _223  and  _225
REMARK   94  A    between atoms: _225  and  _226
REMARK   95  A    between atoms: _225  and  _228
REMARK   96  A    between atoms: _231  and  _233
REMARK   97  A    between atoms: _233  and  _234
REMARK   98  A    between atoms: _233  and  _236
REMARK   99  A    between atoms: _236  and  _237
REMARK  100  A    between atoms: _242  and  _244
REMARK  101  A    between atoms: _244  and  _245
REMARK  102  A    between atoms: _244  and  _247
REMARK  103  A    between atoms: _247  and  _248
REMARK  104  A    between atoms: _251  and  _253
REMARK  105  A    between atoms: _253  and  _254
REMARK  106  A    between atoms: _253  and  _256
REMARK  107  A    between atoms: _256  and  _257
REMARK  108  A    between atoms: _260  and  _262
REMARK  109  A    between atoms: _262  and  _263
REMARK  110  A    between atoms: _265  and  _267
REMARK  111  A    between atoms: _267  and  _268
REMARK  112  A    between atoms: _267  and  _270
REMARK  113  A    between atoms: _270  and  _271
REMARK  114  A    between atoms: _271  and  _272
REMARK  115  A    between atoms: _272  and  _273
REMARK  116  A    between atoms: _282  and  _284
REMARK  117  A    between atoms: _284  and  _285
REMARK  118  A    between atoms: _284  and  _287
REMARK  119  A    between atoms: _287  and  _288
REMARK  120  A    between atoms: _293  and  _295
REMARK  121  A    between atoms: _295  and  _296
REMARK  122  A    between atoms: _295  and  _298
REMARK  123  A    between atoms: _298  and  _299
REMARK  124  A    between atoms: _299  and  _300
REMARK  125  A    between atoms: _300  and  _301
REMARK  126  A    between atoms: _310  and  _312
REMARK  127  A    between atoms: _312  and  _313
REMARK  128  A    between atoms: _312  and  _315
REMARK  129  A    between atoms: _315  and  _316
REMARK  130  A    between atoms: _319  and  _321
REMARK  131  A    between atoms: _321  and  _322
REMARK  132  A    between atoms: _321  and  _324
REMARK  133  A    between atoms: _324  and  _325
REMARK  134  A    between atoms: _328  and  _330
REMARK  135  A    between atoms: _330  and  _331
REMARK  136  A    between atoms: _330  and  _333
REMARK  137  A    between atoms: _333  and  _334
REMARK  138  A    between atoms: _337  and  _339
REMARK  139  A    between atoms: _339  and  _340
REMARK  140  A    between atoms: _339  and  _342
REMARK  141  A    between atoms: _342  and  _343
REMARK  142  A    between atoms: _346  and  _348
REMARK  143  A    between atoms: _348  and  _349
REMARK  144  A    between atoms: _351  and  _353
REMARK  145  A    between atoms: _353  and  _354
REMARK  146  A    between atoms: _357  and  _359
REMARK  147  A    between atoms: _359  and  _360
REMARK  148  A    between atoms: _359  and  _362
REMARK  149  A    between atoms: _362  and  _363
REMARK  150  A    between atoms: _366  and  _368
REMARK  151  A    between atoms: _368  and  _369
REMARK  152  A    between atoms: _368  and  _371
REMARK  153  A    between atoms: _371  and  _372
REMARK  154  A    between atoms: _375  and  _377
REMARK  155  A    between atoms: _377  and  _378
REMARK  156  A    between atoms: _377  and  _380
REMARK  157  A    between atoms: _380  and  _381
REMARK  158  A    between atoms: _384  and  _386
REMARK  159  A    between atoms: _386  and  _387
REMARK  160  A    between atoms: _386  and  _389
REMARK  161  A    between atoms: _392  and  _394
REMARK  162  A    between atoms: _394  and  _395
REMARK  163  A    between atoms: _394  and  _397
REMARK  164  A    between atoms: _397  and  _398
REMARK  165  A    between atoms: _401  and  _403
REMARK  166  A    between atoms: _403  and  _404
REMARK  167  A    between atoms: _403  and  _406
REMARK  168  A    between atoms: _406  and  _407
REMARK  169  A    between atoms: _407  and  _408
REMARK  170  A    between atoms: _408  and  _409
REMARK  171  A    between atoms: _409  and  _410
REMARK  172  A    between atoms: _414  and  _416
REMARK  173  A    between atoms: _416  and  _417
REMARK  174  A    between atoms: _416  and  _419
REMARK  175  A    between atoms: _419  and  _420
REMARK  176  A    between atoms: _420  and  _421
REMARK  177  A    between atoms: _423  and  _425
REMARK  178  A    between atoms: _425  and  _426
REMARK  179  A    between atoms: _425  and  _428
REMARK  180  A    between atoms: _428  and  _429
REMARK  181  A    between atoms: _432  and  _434
REMARK  182  A    between atoms: _434  and  _435
REMARK  183  A    between atoms: _437  and  _439
REMARK  184  A    between atoms: _439  and  _440
REMARK  185  A    between atoms: _442  and  _444
REMARK  186  A    between atoms: _444  and  _445
REMARK  187  A    between atoms: _444  and  _447
REMARK  188  A    between atoms: _447  and  _448
REMARK  189  A    between atoms: _451  and  _453
REMARK  190  A    between atoms: _453  and  _454
REMARK  191  A    between atoms: _456  and  _458
REMARK  192  A    between atoms: _458  and  _459
REMARK  193  A    between atoms: _461  and  _463
REMARK  194  A    between atoms: _463  and  _464
REMARK  195  A    between atoms: _463  and  _466
REMARK  196  A    between atoms: _466  and  _467
REMARK  197  A    between atoms: _473  and  _475
REMARK  198  A    between atoms: _475  and  _476
REMARK  199  A    between atoms: _475  and  _478
REMARK  200  A    between atoms: _478  and  _479
REMARK  201  A    between atoms: _482  and  _484
REMARK  202  A    between atoms: _484  and  _485
REMARK  203  A    between atoms: _484  and  _487
REMARK  204  A    between atoms: _490  and  _492
REMARK  205  A    between atoms: _492  and  _493
REMARK  206  A    between atoms: _492  and  _495
REMARK  207  A    between atoms: _495  and  _496
REMARK  208  A    between atoms: _499  and  _501
REMARK  209  A    between atoms: _501  and  _502
REMARK  210  A    between atoms: _501  and  _504
REMARK  211  A    between atoms: _504  and  _505
REMARK  212  A    between atoms: _509  and  _510
REMARK  213  A    between atoms: _515  and  _517
REMARK  214  A    between atoms: _517  and  _518
REMARK  215  A    between atoms: _517  and  _520
REMARK  216  A    between atoms: _523  and  _525
REMARK  217  A    between atoms: _525  and  _526
REMARK  218  A    between atoms: _525  and  _528
REMARK  219  A    between atoms: _528  and  _529
REMARK  220  A    between atoms: _534  and  _536
REMARK  221  A    between atoms: _536  and  _537
REMARK  222  A    between atoms: _536  and  _539
REMARK  223  A    between atoms: _539  and  _540
REMARK  224  A    between atoms: _543  and  _545
REMARK  225  A    between atoms: _545  and  _546
REMARK  226  A    between atoms: _545  and  _548
REMARK  227  A    between atoms: _548  and  _549
REMARK  228  A    between atoms: _552  and  _554
REMARK  229  A    between atoms: _554  and  _555
REMARK  230  A    between atoms: _557  and  _559
REMARK  231  A    between atoms: _559  and  _560
REMARK  232  A    between atoms: _559  and  _562
REMARK  233  A    between atoms: _562  and  _563
REMARK  234  A    between atoms: _563  and  _564
REMARK  235  A    between atoms: _564  and  _565
REMARK  236  A    between atoms: _574  and  _576
REMARK  237  A    between atoms: _576  and  _577
REMARK  238  A    between atoms: _576  and  _579
REMARK  239  A    between atoms: _579  and  _580
REMARK                            x       y       z     vdW  Elec       q    Type
REMARK                         _______ _______ _______ _____ _____    ______ ____
ROOT
ATOM      1  O   HOH     1      30.510  20.947  11.133  0.00  0.00    +0.000 OA
ENDROOT
TORSDOF 0
REMARK  Name = ../refined-set-2016/1sdu/1sdu_pocket.pdb
REMARK  239 active torsions:
REMARK  status: ('A' for Active; 'I' for Inactive)
REMARK    1  A    between atoms: _1  and  _3
REMARK    2  A    between atoms: _3  and  _4
REMARK    3  A    between atoms: _3  and  _6
REMARK    4  A    between atoms: _6  and  _7
REMARK    5  A    between atoms: _7  and  _8
REMARK    6  A    between atoms: _8  and  _9
REMARK    7  A    between atoms: _18  and  _20
REMARK    8  A    between atoms: _20  and  _21
REMARK    9  A    between atoms: _20  and  _23
REMARK   10  A    between atoms: _23  and  _24
REMARK   11  A    between atoms: _27  and  _29
REMARK   12  A    between atoms: _29  and  _30
REMARK   13  A    between atoms: _29  and  _32
REMARK   14  A    between atoms: _32  and  _33
REMARK   15  A    between atoms: _36  and  _38
REMARK   16  A    between atoms: _38  and  _39
REMARK   17  A    between atoms: _38  and  _41
REMARK   18  A    between atoms: _41  and  _42
REMARK   19  A    between atoms: _45  and  _47
REMARK   20  A    between atoms: _47  and  _48
REMARK   21  A    between atoms: _47  and  _50
REMARK   22  A    between atoms: _50  and  _51
REMARK   23  A    between atoms: _54  and  _56
REMARK   24  A    between atoms: _56  and  _57
REMARK   25  A    between atoms: _56  and  _59
REMARK   26  A    between atoms: _59  and  _60
REMARK   27  A    between atoms: _63  and  _65
REMARK   28  A    between atoms: _65  and  _66
REMARK   29  A    between atoms: _68  and  _70
REMARK   30  A    between atoms: _70  and  _71
REMARK   31  A    between atoms: _74  and  _76
REMARK   32  A    between atoms: _76  and  _77
REMARK   33  A    between atoms: _76  and  _79
REMARK   34  A    between atoms: _79  and  _80
REMARK   35  A    between atoms: _83  and  _85
REMARK   36  A    between atoms: _85  and  _86
REMARK   37  A    between atoms: _85  and  _88
REMARK   38  A    between atoms: _88  and  _89
REMARK   39  A    between atoms: _92  and  _94
REMARK   40  A    between atoms: _94  and  _95
REMARK   41  A    between atoms: _94  and  _97
REMARK   42  A    between atoms: _97  and  _98
REMARK   43  A    between atoms: _101  and  _103
REMARK   44  A    between atoms: _103  and  _104
REMARK   45  A    between atoms: _103  and  _106
REMARK   46  A    between atoms: _109  and  _111
REMARK   47  A    between atoms: _111  and  _112
REMARK   48  A    between atoms: _111  and  _114
REMARK   49  A    between atoms: _115  and  _116
REMARK   50  A    between atoms: _116  and  _117
REMARK   51  A    between atoms: _117  and  _118
REMARK   52  A    between atoms: _122  and  _124
REMARK   53  A    between atoms: _124  and  _125
REMARK   54  A    between atoms: _124  and  _127
REMARK   55  A    between atoms: _127  and  _128
REMARK   56  A    between atoms: _128  and  _129
REMARK   57  A    between atoms: _131  and  _133
REMARK   58  A    between atoms: _133  and  _134
REMARK   59  A    between atoms: _133  and  _136
REMARK   60  A    between atoms: _136  and  _137
REMARK   61  A    between atoms: _140  and  _142
REMARK   62  A    between atoms: _142  and  _143
REMARK   63  A    between atoms: _145  and  _147
REMARK   64  A    between atoms: _147  and  _148
REMARK   65  A    between atoms: _150  and  _152
REMARK   66  A    between atoms: _152  and  _153
REMARK   67  A    between atoms: _152  and  _155
REMARK   68  A    between atoms: _155  and  _156
REMARK   69  A    between atoms: _159  and  _161
REMARK   70  A    between atoms: _161  and  _162
REMARK   71  A    between atoms: _164  and  _166
REMARK   72  A    between atoms: _166  and  _167
REMARK   73  A    between atoms: _169  and  _171
REMARK   74  A    between atoms: _171  and  _172
REMARK   75  A    between atoms: _171  and  _174
REMARK   76  A    between atoms: _174  and  _175
REMARK   77  A    between atoms: _181  and  _183
REMARK   78  A    between atoms: _183  and  _184
REMARK   79  A    between atoms: _183  and  _186
REMARK   80  A    between atoms: _186  and  _187
REMARK   81  A    between atoms: _190  and  _192
REMARK   82  A    between atoms: _192  and  _193
REMARK   83  A    between atoms: _192  and  _195
REMARK   84  A    between atoms: _198  and  _200
REMARK   85  A    between atoms: _200  and  _201
REMARK   86  A    between atoms: _200  and  _203
REMARK   87  A    between atoms: _203  and  _204
REMARK   88  A    between atoms: _207  and  _209
REMARK   89  A    between atoms: _209  and  _210
REMARK   90  A    between atoms: _209  and  _212
REMARK   91  A    between atoms: _212  and  _213
REMARK   92  A    between atoms: _217  and  _218
REMARK   93  A    between atoms: _223  and  _225
REMARK   94  A    between atoms: _225  and  _226
REMARK   95  A    between atoms: _225  and  _228
REMARK   96  A    between atoms: _231  and  _233
REMARK   97  A    between atoms: _233  and  _234
REMARK   98  A    between atoms: _233  and  _236
REMARK   99  A    between atoms: _236  and  _237
REMARK  100  A    between atoms: _242  and  _244
REMARK  101  A    between atoms: _244  and  _245
REMARK  102  A    between atoms: _244  and  _247
REMARK  103  A    between atoms: _247  and  _248
REMARK  104  A    between atoms: _251  and  _253
REMARK  105  A    between atoms: _253  and  _254
REMARK  106  A    between atoms: _253  and  _256
REMARK  107  A    between atoms: _256  and  _257
REMARK  108  A    between atoms: _260  and  _262
REMARK  109  A    between atoms: _262  and  _263
REMARK  110  A    between atoms: _265  and  _267
REMARK  111  A    between atoms: _267  and  _268
REMARK  112  A    between atoms: _267  and  _270
REMARK  113  A    between atoms: _270  and  _271
REMARK  114  A    between atoms: _271  and  _272
REMARK  115  A    between atoms: _272  and  _273
REMARK  116  A    between atoms: _282  and  _284
REMARK  117  A    between atoms: _284  and  _285
REMARK  118  A    between atoms: _284  and  _287
REMARK  119  A    between atoms: _287  and  _288
REMARK  120  A    between atoms: _293  and  _295
REMARK  121  A    between atoms: _295  and  _296
REMARK  122  A    between atoms: _295  and  _298
REMARK  123  A    between atoms: _298  and  _299
REMARK  124  A    between atoms: _299  and  _300
REMARK  125  A    between atoms: _300  and  _301
REMARK  126  A    between atoms: _310  and  _312
REMARK  127  A    between atoms: _312  and  _313
REMARK  128  A    between atoms: _312  and  _315
REMARK  129  A    between atoms: _315  and  _316
REMARK  130  A    between atoms: _319  and  _321
REMARK  131  A    between atoms: _321  and  _322
REMARK  132  A    between atoms: _321  and  _324
REMARK  133  A    between atoms: _324  and  _325
REMARK  134  A    between atoms: _328  and  _330
REMARK  135  A    between atoms: _330  and  _331
REMARK  136  A    between atoms: _330  and  _333
REMARK  137  A    between atoms: _333  and  _334
REMARK  138  A    between atoms: _337  and  _339
REMARK  139  A    between atoms: _339  and  _340
REMARK  140  A    between atoms: _339  and  _342
REMARK  141  A    between atoms: _342  and  _343
REMARK  142  A    between atoms: _346  and  _348
REMARK  143  A    between atoms: _348  and  _349
REMARK  144  A    between atoms: _351  and  _353
REMARK  145  A    between atoms: _353  and  _354
REMARK  146  A    between atoms: _357  and  _359
REMARK  147  A    between atoms: _359  and  _360
REMARK  148  A    between atoms: _359  and  _362
REMARK  149  A    between atoms: _362  and  _363
REMARK  150  A    between atoms: _366  and  _368
REMARK  151  A    between atoms: _368  and  _369
REMARK  152  A    between atoms: _368  and  _371
REMARK  153  A    between atoms: _371  and  _372
REMARK  154  A    between atoms: _375  and  _377
REMARK  155  A    between atoms: _377  and  _378
REMARK  156  A    between atoms: _377  and  _380
REMARK  157  A    between atoms: _380  and  _381
REMARK  158  A    between atoms: _384  and  _386
REMARK  159  A    between atoms: _386  and  _387
REMARK  160  A    between atoms: _386  and  _389
REMARK  161  A    between atoms: _392  and  _394
REMARK  162  A    between atoms: _394  and  _395
REMARK  163  A    between atoms: _394  and  _397
REMARK  164  A    between atoms: _397  and  _398
REMARK  165  A    between atoms: _401  and  _403
REMARK  166  A    between atoms: _403  and  _404
REMARK  167  A    between atoms: _403  and  _406
REMARK  168  A    between atoms: _406  and  _407
REMARK  169  A    between atoms: _407  and  _408
REMARK  170  A    between atoms: _408  and  _409
REMARK  171  A    between atoms: _409  and  _410
REMARK  172  A    between atoms: _414  and  _416
REMARK  173  A    between atoms: _416  and  _417
REMARK  174  A    between atoms: _416  and  _419
REMARK  175  A    between atoms: _419  and  _420
REMARK  176  A    between atoms: _420  and  _421
REMARK  177  A    between atoms: _423  and  _425
REMARK  178  A    between atoms: _425  and  _426
REMARK  179  A    between atoms: _425  and  _428
REMARK  180  A    between atoms: _428  and  _429
REMARK  181  A    between atoms: _432  and  _434
REMARK  182  A    between atoms: _434  and  _435
REMARK  183  A    between atoms: _437  and  _439
REMARK  184  A    between atoms: _439  and  _440
REMARK  185  A    between atoms: _442  and  _444
REMARK  186  A    between atoms: _444  and  _445
REMARK  187  A    between atoms: _444  and  _447
REMARK  188  A    between atoms: _447  and  _448
REMARK  189  A    between atoms: _451  and  _453
REMARK  190  A    between atoms: _453  and  _454
REMARK  191  A    between atoms: _456  and  _458
REMARK  192  A    between atoms: _458  and  _459
REMARK  193  A    between atoms: _461  and  _463
REMARK  194  A    between atoms: _463  and  _464
REMARK  195  A    between atoms: _463  and  _466
REMARK  196  A    between atoms: _466  and  _467
REMARK  197  A    between atoms: _473  and  _475
REMARK  198  A    between atoms: _475  and  _476
REMARK  199  A    between atoms: _475  and  _478
REMARK  200  A    between atoms: _478  and  _479
REMARK  201  A    between atoms: _482  and  _484
REMARK  202  A    between atoms: _484  and  _485
REMARK  203  A    between atoms: _484  and  _487
REMARK  204  A    between atoms: _490  and  _492
REMARK  205  A    between atoms: _492  and  _493
REMARK  206  A    between atoms: _492  and  _495
REMARK  207  A    between atoms: _495  and  _496
REMARK  208  A    between atoms: _499  and  _501
REMARK  209  A    between atoms: _501  and  _502
REMARK  210  A    between atoms: _501  and  _504
REMARK  211  A    between atoms: _504  and  _505
REMARK  212  A    between atoms: _509  and  _510
REMARK  213  A    between atoms: _515  and  _517
REMARK  214  A    between atoms: _517  and  _518
REMARK  215  A    between atoms: _517  and  _520
REMARK  216  A    between atoms: _523  and  _525
REMARK  217  A    between atoms: _525  and  _526
REMARK  218  A    between atoms: _525  and  _528
REMARK  219  A    between atoms: _528  and  _529
REMARK  220  A    between atoms: _534  and  _536
REMARK  221  A    between atoms: _536  and  _537
REMARK  222  A    between atoms: _536  and  _539
REMARK  223  A    between atoms: _539  and  _540
REMARK  224  A    between atoms: _543  and  _545
REMARK  225  A    between atoms: _545  and  _546
REMARK  226  A    between atoms: _545  and  _548
REMARK  227  A    between atoms: _548  and  _549
REMARK  228  A    between atoms: _552  and  _554
REMARK  229  A    between atoms: _554  and  _555
REMARK  230  A    between atoms: _557  and  _559
REMARK  231  A    between atoms: _559  and  _560
REMARK  232  A    between atoms: _559  and  _562
REMARK  233  A    between atoms: _562  and  _563
REMARK  234  A    between atoms: _563  and  _564
REMARK  235  A    between atoms: _564  and  _565
REMARK  236  A    between atoms: _574  and  _576
REMARK  237  A    between atoms: _576  and  _577
REMARK  238  A    between atoms: _576  and  _579
REMARK  239  A    between atoms: _579  and  _580
REMARK                            x       y       z     vdW  Elec       q    Type
REMARK                         _______ _______ _______ _____ _____    ______ ____
ROOT
ATOM      1  O   HOH     1      23.773  21.691   8.051  0.00  0.00    +0.000 OA
ENDROOT
TORSDOF 0
REMARK  Name = ../refined-set-2016/1sdu/1sdu_pocket.pdb
REMARK  239 active torsions:
REMARK  status: ('A' for Active; 'I' for Inactive)
REMARK    1  A    between atoms: _1  and  _3
REMARK    2  A    between atoms: _3  and  _4
REMARK    3  A    between atoms: _3  and  _6
REMARK    4  A    between atoms: _6  and  _7
REMARK    5  A    between atoms: _7  and  _8
REMARK    6  A    between atoms: _8  and  _9
REMARK    7  A    between atoms: _18  and  _20
REMARK    8  A    between atoms: _20  and  _21
REMARK    9  A    between atoms: _20  and  _23
REMARK   10  A    between atoms: _23  and  _24
REMARK   11  A    between atoms: _27  and  _29
REMARK   12  A    between atoms: _29  and  _30
REMARK   13  A    between atoms: _29  and  _32
REMARK   14  A    between atoms: _32  and  _33
REMARK   15  A    between atoms: _36  and  _38
REMARK   16  A    between atoms: _38  and  _39
REMARK   17  A    between atoms: _38  and  _41
REMARK   18  A    between atoms: _41  and  _42
REMARK   19  A    between atoms: _45  and  _47
REMARK   20  A    between atoms: _47  and  _48
REMARK   21  A    between atoms: _47  and  _50
REMARK   22  A    between atoms: _50  and  _51
REMARK   23  A    between atoms: _54  and  _56
REMARK   24  A    between atoms: _56  and  _57
REMARK   25  A    between atoms: _56  and  _59
REMARK   26  A    between atoms: _59  and  _60
REMARK   27  A    between atoms: _63  and  _65
REMARK   28  A    between atoms: _65  and  _66
REMARK   29  A    between atoms: _68  and  _70
REMARK   30  A    between atoms: _70  and  _71
REMARK   31  A    between atoms: _74  and  _76
REMARK   32  A    between atoms: _76  and  _77
REMARK   33  A    between atoms: _76  and  _79
REMARK   34  A    between atoms: _79  and  _80
REMARK   35  A    between atoms: _83  and  _85
REMARK   36  A    between atoms: _85  and  _86
REMARK   37  A    between atoms: _85  and  _88
REMARK   38  A    between atoms: _88  and  _89
REMARK   39  A    between atoms: _92  and  _94
REMARK   40  A    between atoms: _94  and  _95
REMARK   41  A    between atoms: _94  and  _97
REMARK   42  A    between atoms: _97  and  _98
REMARK   43  A    between atoms: _101  and  _103
REMARK   44  A    between atoms: _103  and  _104
REMARK   45  A    between atoms: _103  and  _106
REMARK   46  A    between atoms: _109  and  _111
REMARK   47  A    between atoms: _111  and  _112
REMARK   48  A    between atoms: _111  and  _114
REMARK   49  A    between atoms: _115  and  _116
REMARK   50  A    between atoms: _116  and  _117
REMARK   51  A    between atoms: _117  and  _118
REMARK   52  A    between atoms: _122  and  _124
REMARK   53  A    between atoms: _124  and  _125
REMARK   54  A    between atoms: _124  and  _127
REMARK   55  A    between atoms: _127  and  _128
REMARK   56  A    between atoms: _128  and  _129
REMARK   57  A    between atoms: _131  and  _133
REMARK   58  A    between atoms: _133  and  _134
REMARK   59  A    between atoms: _133  and  _136
REMARK   60  A    between atoms: _136  and  _137
REMARK   61  A    between atoms: _140  and  _142
REMARK   62  A    between atoms: _142  and  _143
REMARK   63  A    between atoms: _145  and  _147
REMARK   64  A    between atoms: _147  and  _148
REMARK   65  A    between atoms: _150  and  _152
REMARK   66  A    between atoms: _152  and  _153
REMARK   67  A    between atoms: _152  and  _155
REMARK   68  A    between atoms: _155  and  _156
REMARK   69  A    between atoms: _159  and  _161
REMARK   70  A    between atoms: _161  and  _162
REMARK   71  A    between atoms: _164  and  _166
REMARK   72  A    between atoms: _166  and  _167
REMARK   73  A    between atoms: _169  and  _171
REMARK   74  A    between atoms: _171  and  _172
REMARK   75  A    between atoms: _171  and  _174
REMARK   76  A    between atoms: _174  and  _175
REMARK   77  A    between atoms: _181  and  _183
REMARK   78  A    between atoms: _183  and  _184
REMARK   79  A    between atoms: _183  and  _186
REMARK   80  A    between atoms: _186  and  _187
REMARK   81  A    between atoms: _190  and  _192
REMARK   82  A    between atoms: _192  and  _193
REMARK   83  A    between atoms: _192  and  _195
REMARK   84  A    between atoms: _198  and  _200
REMARK   85  A    between atoms: _200  and  _201
REMARK   86  A    between atoms: _200  and  _203
REMARK   87  A    between atoms: _203  and  _204
REMARK   88  A    between atoms: _207  and  _209
REMARK   89  A    between atoms: _209  and  _210
REMARK   90  A    between atoms: _209  and  _212
REMARK   91  A    between atoms: _212  and  _213
REMARK   92  A    between atoms: _217  and  _218
REMARK   93  A    between atoms: _223  and  _225
REMARK   94  A    between atoms: _225  and  _226
REMARK   95  A    between atoms: _225  and  _228
REMARK   96  A    between atoms: _231  and  _233
REMARK   97  A    between atoms: _233  and  _234
REMARK   98  A    between atoms: _233  and  _236
REMARK   99  A    between atoms: _236  and  _237
REMARK  100  A    between atoms: _242  and  _244
REMARK  101  A    between atoms: _244  and  _245
REMARK  102  A    between atoms: _244  and  _247
REMARK  103  A    between atoms: _247  and  _248
REMARK  104  A    between atoms: _251  and  _253
REMARK  105  A    between atoms: _253  and  _254
REMARK  106  A    between atoms: _253  and  _256
REMARK  107  A    between atoms: _256  and  _257
REMARK  108  A    between atoms: _260  and  _262
REMARK  109  A    between atoms: _262  and  _263
REMARK  110  A    between atoms: _265  and  _267
REMARK  111  A    between atoms: _267  and  _268
REMARK  112  A    between atoms: _267  and  _270
REMARK  113  A    between atoms: _270  and  _271
REMARK  114  A    between atoms: _271  and  _272
REMARK  115  A    between atoms: _272  and  _273
REMARK  116  A    between atoms: _282  and  _284
REMARK  117  A    between atoms: _284  and  _285
REMARK  118  A    between atoms: _284  and  _287
REMARK  119  A    between atoms: _287  and  _288
REMARK  120  A    between atoms: _293  and  _295
REMARK  121  A    between atoms: _295  and  _296
REMARK  122  A    between atoms: _295  and  _298
REMARK  123  A    between atoms: _298  and  _299
REMARK  124  A    between atoms: _299  and  _300
REMARK  125  A    between atoms: _300  and  _301
REMARK  126  A    between atoms: _310  and  _312
REMARK  127  A    between atoms: _312  and  _313
REMARK  128  A    between atoms: _312  and  _315
REMARK  129  A    between atoms: _315  and  _316
REMARK  130  A    between atoms: _319  and  _321
REMARK  131  A    between atoms: _321  and  _322
REMARK  132  A    between atoms: _321  and  _324
REMARK  133  A    between atoms: _324  and  _325
REMARK  134  A    between atoms: _328  and  _330
REMARK  135  A    between atoms: _330  and  _331
REMARK  136  A    between atoms: _330  and  _333
REMARK  137  A    between atoms: _333  and  _334
REMARK  138  A    between atoms: _337  and  _339
REMARK  139  A    between atoms: _339  and  _340
REMARK  140  A    between atoms: _339  and  _342
REMARK  141  A    between atoms: _342  and  _343
REMARK  142  A    between atoms: _346  and  _348
REMARK  143  A    between atoms: _348  and  _349
REMARK  144  A    between atoms: _351  and  _353
REMARK  145  A    between atoms: _353  and  _354
REMARK  146  A    between atoms: _357  and  _359
REMARK  147  A    between atoms: _359  and  _360
REMARK  148  A    between atoms: _359  and  _362
REMARK  149  A    between atoms: _362  and  _363
REMARK  150  A    between atoms: _366  and  _368
REMARK  151  A    between atoms: _368  and  _369
REMARK  152  A    between atoms: _368  and  _371
REMARK  153  A    between atoms: _371  and  _372
REMARK  154  A    between atoms: _375  and  _377
REMARK  155  A    between atoms: _377  and  _378
REMARK  156  A    between atoms: _377  and  _380
REMARK  157  A    between atoms: _380  and  _381
REMARK  158  A    between atoms: _384  and  _386
REMARK  159  A    between atoms: _386  and  _387
REMARK  160  A    between atoms: _386  and  _389
REMARK  161  A    between atoms: _392  and  _394
REMARK  162  A    between atoms: _394  and  _395
REMARK  163  A    between atoms: _394  and  _397
REMARK  164  A    between atoms: _397  and  _398
REMARK  165  A    between atoms: _401  and  _403
REMARK  166  A    between atoms: _403  and  _404
REMARK  167  A    between atoms: _403  and  _406
REMARK  168  A    between atoms: _406  and  _407
REMARK  169  A    between atoms: _407  and  _408
REMARK  170  A    between atoms: _408  and  _409
REMARK  171  A    between atoms: _409  and  _410
REMARK  172  A    between atoms: _414  and  _416
REMARK  173  A    between atoms: _416  and  _417
REMARK  174  A    between atoms: _416  and  _419
REMARK  175  A    between atoms: _419  and  _420
REMARK  176  A    between atoms: _420  and  _421
REMARK  177  A    between atoms: _423  and  _425
REMARK  178  A    between atoms: _425  and  _426
REMARK  179  A    between atoms: _425  and  _428
REMARK  180  A    between atoms: _428  and  _429
REMARK  181  A    between atoms: _432  and  _434
REMARK  182  A    between atoms: _434  and  _435
REMARK  183  A    between atoms: _437  and  _439
REMARK  184  A    between atoms: _439  and  _440
REMARK  185  A    between atoms: _442  and  _444
REMARK  186  A    between atoms: _444  and  _445
REMARK  187  A    between atoms: _444  and  _447
REMARK  188  A    between atoms: _447  and  _448
REMARK  189  A    between atoms: _451  and  _453
REMARK  190  A    between atoms: _453  and  _454
REMARK  191  A    between atoms: _456  and  _458
REMARK  192  A    between atoms: _458  and  _459
REMARK  193  A    between atoms: _461  and  _463
REMARK  194  A    between atoms: _463  and  _464
REMARK  195  A    between atoms: _463  and  _466
REMARK  196  A    between atoms: _466  and  _467
REMARK  197  A    between atoms: _473  and  _475
REMARK  198  A    between atoms: _475  and  _476
REMARK  199  A    between atoms: _475  and  _478
REMARK  200  A    between atoms: _478  and  _479
REMARK  201  A    between atoms: _482  and  _484
REMARK  202  A    between atoms: _484  and  _485
REMARK  203  A    between atoms: _484  and  _487
REMARK  204  A    between atoms: _490  and  _492
REMARK  205  A    between atoms: _492  and  _493
REMARK  206  A    between atoms: _492  and  _495
REMARK  207  A    between atoms: _495  and  _496
REMARK  208  A    between atoms: _499  and  _501
REMARK  209  A    between atoms: _501  and  _502
REMARK  210  A    between atoms: _501  and  _504
REMARK  211  A    between atoms: _504  and  _505
REMARK  212  A    between atoms: _509  and  _510
REMARK  213  A    between atoms: _515  and  _517
REMARK  214  A    between atoms: _517  and  _518
REMARK  215  A    between atoms: _517  and  _520
REMARK  216  A    between atoms: _523  and  _525
REMARK  217  A    between atoms: _525  and  _526
REMARK  218  A    between atoms: _525  and  _528
REMARK  219  A    between atoms: _528  and  _529
REMARK  220  A    between atoms: _534  and  _536
REMARK  221  A    between atoms: _536  and  _537
REMARK  222  A    between atoms: _536  and  _539
REMARK  223  A    between atoms: _539  and  _540
REMARK  224  A    between atoms: _543  and  _545
REMARK  225  A    between atoms: _545  and  _546
REMARK  226  A    between atoms: _545  and  _548
REMARK  227  A    between atoms: _548  and  _549
REMARK  228  A    between atoms: _552  and  _554
REMARK  229  A    between atoms: _554  and  _555
REMARK  230  A    between atoms: _557  and  _559
REMARK  231  A    between atoms: _559  and  _560
REMARK  232  A    between atoms: _559  and  _562
REMARK  233  A    between atoms: _562  and  _563
REMARK  234  A    between atoms: _563  and  _564
REMARK  235  A    between atoms: _564  and  _565
REMARK  236  A    between atoms: _574  and  _576
REMARK  237  A    between atoms: _576  and  _577
REMARK  238  A    between atoms: _576  and  _579
REMARK  239  A    between atoms: _579  and  _580
REMARK                            x       y       z     vdW  Elec       q    Type
REMARK                         _______ _______ _______ _____ _____    ______ ____
ROOT
ATOM      1  O   HOH     1      18.548  26.984   5.501  0.00  0.00    +0.000 OA
ENDROOT
TORSDOF 0
