REMARK  Name = ../refined-set-2016/4q87/4q87_pocket.pdb
REMARK  140 active torsions:
REMARK  status: ('A' for Active; 'I' for Inactive)
REMARK    1  A    between atoms: _1  and  _3
REMARK    2  A    between atoms: _3  and  _4
REMARK    3  A    between atoms: _3  and  _6
REMARK    4  A    between atoms: _6  and  _7
REMARK    5  A    between atoms: _17  and  _19
REMARK    6  A    between atoms: _19  and  _20
REMARK    7  A    between atoms: _19  and  _22
REMARK    8  A    between atoms: _22  and  _23
REMARK    9  A    between atoms: _28  and  _29
REMARK   10  A    between atoms: _31  and  _33
REMARK   11  A    between atoms: _33  and  _34
REMARK   12  A    between atoms: _33  and  _36
REMARK   13  A    between atoms: _36  and  _37
REMARK   14  A    between atoms: _39  and  _41
REMARK   15  A    between atoms: _41  and  _42
REMARK   16  A    between atoms: _41  and  _44
REMARK   17  A    between atoms: _44  and  _45
REMARK   18  A    between atoms: _50  and  _52
REMARK   19  A    between atoms: _52  and  _53
REMARK   20  A    between atoms: _52  and  _55
REMARK   21  A    between atoms: _55  and  _56
REMARK   22  A    between atoms: _61  and  _63
REMARK   23  A    between atoms: _63  and  _64
REMARK   24  A    between atoms: _67  and  _69
REMARK   25  A    between atoms: _69  and  _70
REMARK   26  A    between atoms: _69  and  _72
REMARK   27  A    between atoms: _72  and  _73
REMARK   28  A    between atoms: _78  and  _80
REMARK   29  A    between atoms: _80  and  _81
REMARK   30  A    between atoms: _80  and  _83
REMARK   31  A    between atoms: _83  and  _84
REMARK   32  A    between atoms: _87  and  _89
REMARK   33  A    between atoms: _89  and  _90
REMARK   34  A    between atoms: _89  and  _92
REMARK   35  A    between atoms: _92  and  _93
REMARK   36  A    between atoms: _93  and  _94
REMARK   37  A    between atoms: _99  and  _101
REMARK   38  A    between atoms: _101  and  _102
REMARK   39  A    between atoms: _101  and  _104
REMARK   40  A    between atoms: _104  and  _105
REMARK   41  A    between atoms: _111  and  _113
REMARK   42  A    between atoms: _124  and  _127
REMARK   43  A    between atoms: _127  and  _128
REMARK   44  A    between atoms: _136  and  _137
REMARK   45  A    between atoms: _145  and  _147
REMARK   46  A    between atoms: _147  and  _148
REMARK   47  A    between atoms: _147  and  _150
REMARK   48  A    between atoms: _150  and  _151
REMARK   49  A    between atoms: _151  and  _152
REMARK   50  A    between atoms: _155  and  _157
REMARK   51  A    between atoms: _157  and  _158
REMARK   52  A    between atoms: _157  and  _160
REMARK   53  A    between atoms: _160  and  _161
REMARK   54  A    between atoms: _166  and  _168
REMARK   55  A    between atoms: _168  and  _169
REMARK   56  A    between atoms: _168  and  _171
REMARK   57  A    between atoms: _171  and  _172
REMARK   58  A    between atoms: _172  and  _173
REMARK   59  A    between atoms: _176  and  _178
REMARK   60  A    between atoms: _178  and  _179
REMARK   61  A    between atoms: _178  and  _181
REMARK   62  A    between atoms: _181  and  _182
REMARK   63  A    between atoms: _185  and  _187
REMARK   64  A    between atoms: _187  and  _188
REMARK   65  A    between atoms: _187  and  _190
REMARK   66  A    between atoms: _190  and  _191
REMARK   67  A    between atoms: _192  and  ZN_393
REMARK   68  A    between atoms: _196  and  _198
REMARK   69  A    between atoms: _198  and  _199
REMARK   70  A    between atoms: _198  and  _201
REMARK   71  A    between atoms: _201  and  _202
REMARK   72  A    between atoms: _205  and  _207
REMARK   73  A    between atoms: _207  and  _208
REMARK   74  A    between atoms: _207  and  _210
REMARK   75  A    between atoms: _213  and  _215
REMARK   76  A    between atoms: _215  and  _216
REMARK   77  A    between atoms: _215  and  _218
REMARK   78  A    between atoms: _218  and  _219
REMARK   79  A    between atoms: _224  and  _226
REMARK   80  A    between atoms: _226  and  _227
REMARK   81  A    between atoms: _226  and  _229
REMARK   82  A    between atoms: _229  and  _230
REMARK   83  A    between atoms: _236  and  _238
REMARK   84  A    between atoms: _238  and  _239
REMARK   85  A    between atoms: _238  and  _241
REMARK   86  A    between atoms: _244  and  _246
REMARK   87  A    between atoms: _246  and  _247
REMARK   88  A    between atoms: _246  and  _249
REMARK   89  A    between atoms: _249  and  _250
REMARK   90  A    between atoms: _253  and  _255
REMARK   91  A    between atoms: _255  and  _256
REMARK   92  A    between atoms: _259  and  _261
REMARK   93  A    between atoms: _261  and  _262
REMARK   94  A    between atoms: _261  and  _264
REMARK   95  A    between atoms: _267  and  _269
REMARK   96  A    between atoms: _269  and  _270
REMARK   97  A    between atoms: _269  and  _272
REMARK   98  A    between atoms: _272  and  _273
REMARK   99  A    between atoms: _275  and  _277
REMARK  100  A    between atoms: _277  and  _278
REMARK  101  A    between atoms: _277  and  _280
REMARK  102  A    between atoms: _280  and  _281
REMARK  103  A    between atoms: _284  and  _286
REMARK  104  A    between atoms: _286  and  _287
REMARK  105  A    between atoms: _286  and  _289
REMARK  106  A    between atoms: _289  and  _290
REMARK  107  A    between atoms: _293  and  _295
REMARK  108  A    between atoms: _295  and  _296
REMARK  109  A    between atoms: _295  and  _298
REMARK  110  A    between atoms: _298  and  _299
REMARK  111  A    between atoms: _303  and  _304
REMARK  112  A    between atoms: _310  and  _311
REMARK  113  A    between atoms: _316  and  _318
REMARK  114  A    between atoms: _318  and  _319
REMARK  115  A    between atoms: _318  and  _321
REMARK  116  A    between atoms: _321  and  _322
REMARK  117  A    between atoms: _325  and  _327
REMARK  118  A    between atoms: _327  and  _328
REMARK  119  A    between atoms: _327  and  _330
REMARK  120  A    between atoms: _330  and  _331
REMARK  121  A    between atoms: _334  and  _336
REMARK  122  A    between atoms: _336  and  _337
REMARK  123  A    between atoms: _336  and  _339
REMARK  124  A    between atoms: _341  and  _343
REMARK  125  A    between atoms: _343  and  _344
REMARK  126  A    between atoms: _343  and  _346
REMARK  127  A    between atoms: _349  and  _351
REMARK  128  A    between atoms: _351  and  _352
REMARK  129  A    between atoms: _351  and  _354
REMARK  130  A    between atoms: _354  and  _355
REMARK  131  A    between atoms: _365  and  _367
REMARK  132  A    between atoms: _367  and  _368
REMARK  133  A    between atoms: _367  and  _370
REMARK  134  A    between atoms: _370  and  _371
REMARK  135  A    between atoms: _376  and  _378
REMARK  136  A    between atoms: _378  and  _379
REMARK  137  A    between atoms: _378  and  _381
REMARK  138  A    between atoms: _381  and  _382
REMARK  139  A    between atoms: _382  and  _383
REMARK  140  A    between atoms: _383  and  _384
REMARK                            x       y       z     vdW  Elec       q    Type
REMARK                         _______ _______ _______ _____ _____    ______ ____
ROOT
ATOM      1  CG  TRP A   1      26.857  -0.096  12.109  0.00  0.00    -0.002 A 
ATOM      2  CD2 TRP A   1      25.508  -0.582  12.059  0.00  0.00    +0.013 A 
ATOM      3  CE3 TRP A   1      24.916  -1.845  12.262  0.00  0.00    +0.001 A 
ATOM      4  CZ3 TRP A   1      23.510  -1.945  12.140  0.00  0.00    +0.000 A 
ATOM      5  CH2 TRP A   1      22.734  -0.835  11.819  0.00  0.00    +0.001 A 
ATOM      6  CZ2 TRP A   1      23.289   0.385  11.570  0.00  0.00    +0.017 A 
ATOM      7  CE2 TRP A   1      24.688   0.507  11.698  0.00  0.00    +0.056 A 
ATOM      8  NE1 TRP A   1      25.481   1.627  11.538  0.00  0.00    -0.352 N 
ATOM      9  HE1 TRP A   1      25.152   2.575  11.266  0.00  0.00    +0.166 HD
ATOM     10  CD1 TRP A   1      26.784   1.268  11.802  0.00  0.00    +0.068 A 
ENDROOT
BRANCH   1  11
ATOM     11  CB  TRP A   1      28.097  -0.910  12.443  0.00  0.00    +0.048 C 
BRANCH  11  12
ATOM     12  CA  TRP A   1      28.744  -1.544  11.214  0.00  0.00    +0.106 C 
BRANCH  12  13
ATOM     13  N   TRP A   1      29.327  -0.530  10.340  0.00  0.00    -0.244 NA
ATOM     14  H   TRP A   1      28.990   0.454  10.332  0.00  0.00    +0.141 HD
ENDBRANCH  12  13
BRANCH  12  15
ATOM     15  C   TRP A   1      27.770  -2.414  10.426  0.00  0.00    +0.199 C 
ATOM     16  O   TRP A   1      27.083  -1.972   9.432  0.00  0.00    -0.219 OA
ENDBRANCH  12  15
ENDBRANCH  11  12
ENDBRANCH   1  11
TORSDOF 4
REMARK  Name = ../refined-set-2016/4q87/4q87_pocket.pdb
REMARK  140 active torsions:
REMARK  status: ('A' for Active; 'I' for Inactive)
REMARK    1  A    between atoms: _1  and  _3
REMARK    2  A    between atoms: _3  and  _4
REMARK    3  A    between atoms: _3  and  _6
REMARK    4  A    between atoms: _6  and  _7
REMARK    5  A    between atoms: _17  and  _19
REMARK    6  A    between atoms: _19  and  _20
REMARK    7  A    between atoms: _19  and  _22
REMARK    8  A    between atoms: _22  and  _23
REMARK    9  A    between atoms: _28  and  _29
REMARK   10  A    between atoms: _31  and  _33
REMARK   11  A    between atoms: _33  and  _34
REMARK   12  A    between atoms: _33  and  _36
REMARK   13  A    between atoms: _36  and  _37
REMARK   14  A    between atoms: _39  and  _41
REMARK   15  A    between atoms: _41  and  _42
REMARK   16  A    between atoms: _41  and  _44
REMARK   17  A    between atoms: _44  and  _45
REMARK   18  A    between atoms: _50  and  _52
REMARK   19  A    between atoms: _52  and  _53
REMARK   20  A    between atoms: _52  and  _55
REMARK   21  A    between atoms: _55  and  _56
REMARK   22  A    between atoms: _61  and  _63
REMARK   23  A    between atoms: _63  and  _64
REMARK   24  A    between atoms: _67  and  _69
REMARK   25  A    between atoms: _69  and  _70
REMARK   26  A    between atoms: _69  and  _72
REMARK   27  A    between atoms: _72  and  _73
REMARK   28  A    between atoms: _78  and  _80
REMARK   29  A    between atoms: _80  and  _81
REMARK   30  A    between atoms: _80  and  _83
REMARK   31  A    between atoms: _83  and  _84
REMARK   32  A    between atoms: _87  and  _89
REMARK   33  A    between atoms: _89  and  _90
REMARK   34  A    between atoms: _89  and  _92
REMARK   35  A    between atoms: _92  and  _93
REMARK   36  A    between atoms: _93  and  _94
REMARK   37  A    between atoms: _99  and  _101
REMARK   38  A    between atoms: _101  and  _102
REMARK   39  A    between atoms: _101  and  _104
REMARK   40  A    between atoms: _104  and  _105
REMARK   41  A    between atoms: _111  and  _113
REMARK   42  A    between atoms: _124  and  _127
REMARK   43  A    between atoms: _127  and  _128
REMARK   44  A    between atoms: _136  and  _137
REMARK   45  A    between atoms: _145  and  _147
REMARK   46  A    between atoms: _147  and  _148
REMARK   47  A    between atoms: _147  and  _150
REMARK   48  A    between atoms: _150  and  _151
REMARK   49  A    between atoms: _151  and  _152
REMARK   50  A    between atoms: _155  and  _157
REMARK   51  A    between atoms: _157  and  _158
REMARK   52  A    between atoms: _157  and  _160
REMARK   53  A    between atoms: _160  and  _161
REMARK   54  A    between atoms: _166  and  _168
REMARK   55  A    between atoms: _168  and  _169
REMARK   56  A    between atoms: _168  and  _171
REMARK   57  A    between atoms: _171  and  _172
REMARK   58  A    between atoms: _172  and  _173
REMARK   59  A    between atoms: _176  and  _178
REMARK   60  A    between atoms: _178  and  _179
REMARK   61  A    between atoms: _178  and  _181
REMARK   62  A    between atoms: _181  and  _182
REMARK   63  A    between atoms: _185  and  _187
REMARK   64  A    between atoms: _187  and  _188
REMARK   65  A    between atoms: _187  and  _190
REMARK   66  A    between atoms: _190  and  _191
REMARK   67  A    between atoms: _192  and  ZN_393
REMARK   68  A    between atoms: _196  and  _198
REMARK   69  A    between atoms: _198  and  _199
REMARK   70  A    between atoms: _198  and  _201
REMARK   71  A    between atoms: _201  and  _202
REMARK   72  A    between atoms: _205  and  _207
REMARK   73  A    between atoms: _207  and  _208
REMARK   74  A    between atoms: _207  and  _210
REMARK   75  A    between atoms: _213  and  _215
REMARK   76  A    between atoms: _215  and  _216
REMARK   77  A    between atoms: _215  and  _218
REMARK   78  A    between atoms: _218  and  _219
REMARK   79  A    between atoms: _224  and  _226
REMARK   80  A    between atoms: _226  and  _227
REMARK   81  A    between atoms: _226  and  _229
REMARK   82  A    between atoms: _229  and  _230
REMARK   83  A    between atoms: _236  and  _238
REMARK   84  A    between atoms: _238  and  _239
REMARK   85  A    between atoms: _238  and  _241
REMARK   86  A    between atoms: _244  and  _246
REMARK   87  A    between atoms: _246  and  _247
REMARK   88  A    between atoms: _246  and  _249
REMARK   89  A    between atoms: _249  and  _250
REMARK   90  A    between atoms: _253  and  _255
REMARK   91  A    between atoms: _255  and  _256
REMARK   92  A    between atoms: _259  and  _261
REMARK   93  A    between atoms: _261  and  _262
REMARK   94  A    between atoms: _261  and  _264
REMARK   95  A    between atoms: _267  and  _269
REMARK   96  A    between atoms: _269  and  _270
REMARK   97  A    between atoms: _269  and  _272
REMARK   98  A    between atoms: _272  and  _273
REMARK   99  A    between atoms: _275  and  _277
REMARK  100  A    between atoms: _277  and  _278
REMARK  101  A    between atoms: _277  and  _280
REMARK  102  A    between atoms: _280  and  _281
REMARK  103  A    between atoms: _284  and  _286
REMARK  104  A    between atoms: _286  and  _287
REMARK  105  A    between atoms: _286  and  _289
REMARK  106  A    between atoms: _289  and  _290
REMARK  107  A    between atoms: _293  and  _295
REMARK  108  A    between atoms: _295  and  _296
REMARK  109  A    between atoms: _295  and  _298
REMARK  110  A    between atoms: _298  and  _299
REMARK  111  A    between atoms: _303  and  _304
REMARK  112  A    between atoms: _310  and  _311
REMARK  113  A    between atoms: _316  and  _318
REMARK  114  A    between atoms: _318  and  _319
REMARK  115  A    between atoms: _318  and  _321
REMARK  116  A    between atoms: _321  and  _322
REMARK  117  A    between atoms: _325  and  _327
REMARK  118  A    between atoms: _327  and  _328
REMARK  119  A    between atoms: _327  and  _330
REMARK  120  A    between atoms: _330  and  _331
REMARK  121  A    between atoms: _334  and  _336
REMARK  122  A    between atoms: _336  and  _337
REMARK  123  A    between atoms: _336  and  _339
REMARK  124  A    between atoms: _341  and  _343
REMARK  125  A    between atoms: _343  and  _344
REMARK  126  A    between atoms: _343  and  _346
REMARK  127  A    between atoms: _349  and  _351
REMARK  128  A    between atoms: _351  and  _352
REMARK  129  A    between atoms: _351  and  _354
REMARK  130  A    between atoms: _354  and  _355
REMARK  131  A    between atoms: _365  and  _367
REMARK  132  A    between atoms: _367  and  _368
REMARK  133  A    between atoms: _367  and  _370
REMARK  134  A    between atoms: _370  and  _371
REMARK  135  A    between atoms: _376  and  _378
REMARK  136  A    between atoms: _378  and  _379
REMARK  137  A    between atoms: _378  and  _381
REMARK  138  A    between atoms: _381  and  _382
REMARK  139  A    between atoms: _382  and  _383
REMARK  140  A    between atoms: _383  and  _384
REMARK                            x       y       z     vdW  Elec       q    Type
REMARK                         _______ _______ _______ _____ _____    ______ ____
ROOT
ATOM      1  CG  TYR A   1      23.099  -7.249  11.913  0.00  0.00    -0.020 A 
ATOM      2  CD2 TYR A   1      22.741  -7.223  13.281  0.00  0.00    -0.001 A 
ATOM      3  CE2 TYR A   1      21.902  -6.235  13.739  0.00  0.00    +0.036 A 
ATOM      4  CZ  TYR A   1      21.431  -5.276  12.874  0.00  0.00    +0.134 A 
ATOM      5  CE1 TYR A   1      21.775  -5.253  11.502  0.00  0.00    +0.036 A 
ATOM      6  CD1 TYR A   1      22.609  -6.240  11.063  0.00  0.00    -0.001 A 
ENDROOT
BRANCH   4   7
ATOM      7  OH  TYR A   1      20.576  -4.304  13.208  0.00  0.00    -0.506 OA
ATOM      8  HH  TYR A   1      20.369  -4.365  14.174  0.00  0.00    +0.292 HD
ENDBRANCH   4   7
BRANCH   1   9
ATOM      9  CB  TYR A   1      24.038  -8.342  11.392  0.00  0.00    +0.051 C 
BRANCH   9  10
ATOM     10  CA  TYR A   1      25.527  -7.948  11.558  0.00  0.00    +0.137 C 
BRANCH  10  11
ATOM     11  N   TYR A   1      25.896  -6.789  10.763  0.00  0.00    -0.239 NA
ATOM     12  H   TYR A   1      25.900  -6.864   9.726  0.00  0.00    +0.142 HD
ENDBRANCH  10  11
BRANCH  10  13
ATOM     13  C   TYR A   1      26.399  -9.157  11.360  0.00  0.00    +0.224 C 
ATOM     14  O   TYR A   1      26.098 -10.214  11.923  0.00  0.00    -0.287 OA
ENDBRANCH  10  13
ENDBRANCH   9  10
ENDBRANCH   1   9
TORSDOF 5
REMARK  Name = ../refined-set-2016/4q87/4q87_pocket.pdb
REMARK  140 active torsions:
REMARK  status: ('A' for Active; 'I' for Inactive)
REMARK    1  A    between atoms: _1  and  _3
REMARK    2  A    between atoms: _3  and  _4
REMARK    3  A    between atoms: _3  and  _6
REMARK    4  A    between atoms: _6  and  _7
REMARK    5  A    between atoms: _17  and  _19
REMARK    6  A    between atoms: _19  and  _20
REMARK    7  A    between atoms: _19  and  _22
REMARK    8  A    between atoms: _22  and  _23
REMARK    9  A    between atoms: _28  and  _29
REMARK   10  A    between atoms: _31  and  _33
REMARK   11  A    between atoms: _33  and  _34
REMARK   12  A    between atoms: _33  and  _36
REMARK   13  A    between atoms: _36  and  _37
REMARK   14  A    between atoms: _39  and  _41
REMARK   15  A    between atoms: _41  and  _42
REMARK   16  A    between atoms: _41  and  _44
REMARK   17  A    between atoms: _44  and  _45
REMARK   18  A    between atoms: _50  and  _52
REMARK   19  A    between atoms: _52  and  _53
REMARK   20  A    between atoms: _52  and  _55
REMARK   21  A    between atoms: _55  and  _56
REMARK   22  A    between atoms: _61  and  _63
REMARK   23  A    between atoms: _63  and  _64
REMARK   24  A    between atoms: _67  and  _69
REMARK   25  A    between atoms: _69  and  _70
REMARK   26  A    between atoms: _69  and  _72
REMARK   27  A    between atoms: _72  and  _73
REMARK   28  A    between atoms: _78  and  _80
REMARK   29  A    between atoms: _80  and  _81
REMARK   30  A    between atoms: _80  and  _83
REMARK   31  A    between atoms: _83  and  _84
REMARK   32  A    between atoms: _87  and  _89
REMARK   33  A    between atoms: _89  and  _90
REMARK   34  A    between atoms: _89  and  _92
REMARK   35  A    between atoms: _92  and  _93
REMARK   36  A    between atoms: _93  and  _94
REMARK   37  A    between atoms: _99  and  _101
REMARK   38  A    between atoms: _101  and  _102
REMARK   39  A    between atoms: _101  and  _104
REMARK   40  A    between atoms: _104  and  _105
REMARK   41  A    between atoms: _111  and  _113
REMARK   42  A    between atoms: _124  and  _127
REMARK   43  A    between atoms: _127  and  _128
REMARK   44  A    between atoms: _136  and  _137
REMARK   45  A    between atoms: _145  and  _147
REMARK   46  A    between atoms: _147  and  _148
REMARK   47  A    between atoms: _147  and  _150
REMARK   48  A    between atoms: _150  and  _151
REMARK   49  A    between atoms: _151  and  _152
REMARK   50  A    between atoms: _155  and  _157
REMARK   51  A    between atoms: _157  and  _158
REMARK   52  A    between atoms: _157  and  _160
REMARK   53  A    between atoms: _160  and  _161
REMARK   54  A    between atoms: _166  and  _168
REMARK   55  A    between atoms: _168  and  _169
REMARK   56  A    between atoms: _168  and  _171
REMARK   57  A    between atoms: _171  and  _172
REMARK   58  A    between atoms: _172  and  _173
REMARK   59  A    between atoms: _176  and  _178
REMARK   60  A    between atoms: _178  and  _179
REMARK   61  A    between atoms: _178  and  _181
REMARK   62  A    between atoms: _181  and  _182
REMARK   63  A    between atoms: _185  and  _187
REMARK   64  A    between atoms: _187  and  _188
REMARK   65  A    between atoms: _187  and  _190
REMARK   66  A    between atoms: _190  and  _191
REMARK   67  A    between atoms: _192  and  ZN_393
REMARK   68  A    between atoms: _196  and  _198
REMARK   69  A    between atoms: _198  and  _199
REMARK   70  A    between atoms: _198  and  _201
REMARK   71  A    between atoms: _201  and  _202
REMARK   72  A    between atoms: _205  and  _207
REMARK   73  A    between atoms: _207  and  _208
REMARK   74  A    between atoms: _207  and  _210
REMARK   75  A    between atoms: _213  and  _215
REMARK   76  A    between atoms: _215  and  _216
REMARK   77  A    between atoms: _215  and  _218
REMARK   78  A    between atoms: _218  and  _219
REMARK   79  A    between atoms: _224  and  _226
REMARK   80  A    between atoms: _226  and  _227
REMARK   81  A    between atoms: _226  and  _229
REMARK   82  A    between atoms: _229  and  _230
REMARK   83  A    between atoms: _236  and  _238
REMARK   84  A    between atoms: _238  and  _239
REMARK   85  A    between atoms: _238  and  _241
REMARK   86  A    between atoms: _244  and  _246
REMARK   87  A    between atoms: _246  and  _247
REMARK   88  A    between atoms: _246  and  _249
REMARK   89  A    between atoms: _249  and  _250
REMARK   90  A    between atoms: _253  and  _255
REMARK   91  A    between atoms: _255  and  _256
REMARK   92  A    between atoms: _259  and  _261
REMARK   93  A    between atoms: _261  and  _262
REMARK   94  A    between atoms: _261  and  _264
REMARK   95  A    between atoms: _267  and  _269
REMARK   96  A    between atoms: _269  and  _270
REMARK   97  A    between atoms: _269  and  _272
REMARK   98  A    between atoms: _272  and  _273
REMARK   99  A    between atoms: _275  and  _277
REMARK  100  A    between atoms: _277  and  _278
REMARK  101  A    between atoms: _277  and  _280
REMARK  102  A    between atoms: _280  and  _281
REMARK  103  A    between atoms: _284  and  _286
REMARK  104  A    between atoms: _286  and  _287
REMARK  105  A    between atoms: _286  and  _289
REMARK  106  A    between atoms: _289  and  _290
REMARK  107  A    between atoms: _293  and  _295
REMARK  108  A    between atoms: _295  and  _296
REMARK  109  A    between atoms: _295  and  _298
REMARK  110  A    between atoms: _298  and  _299
REMARK  111  A    between atoms: _303  and  _304
REMARK  112  A    between atoms: _310  and  _311
REMARK  113  A    between atoms: _316  and  _318
REMARK  114  A    between atoms: _318  and  _319
REMARK  115  A    between atoms: _318  and  _321
REMARK  116  A    between atoms: _321  and  _322
REMARK  117  A    between atoms: _325  and  _327
REMARK  118  A    between atoms: _327  and  _328
REMARK  119  A    between atoms: _327  and  _330
REMARK  120  A    between atoms: _330  and  _331
REMARK  121  A    between atoms: _334  and  _336
REMARK  122  A    between atoms: _336  and  _337
REMARK  123  A    between atoms: _336  and  _339
REMARK  124  A    between atoms: _341  and  _343
REMARK  125  A    between atoms: _343  and  _344
REMARK  126  A    between atoms: _343  and  _346
REMARK  127  A    between atoms: _349  and  _351
REMARK  128  A    between atoms: _351  and  _352
REMARK  129  A    between atoms: _351  and  _354
REMARK  130  A    between atoms: _354  and  _355
REMARK  131  A    between atoms: _365  and  _367
REMARK  132  A    between atoms: _367  and  _368
REMARK  133  A    between atoms: _367  and  _370
REMARK  134  A    between atoms: _370  and  _371
REMARK  135  A    between atoms: _376  and  _378
REMARK  136  A    between atoms: _378  and  _379
REMARK  137  A    between atoms: _378  and  _381
REMARK  138  A    between atoms: _381  and  _382
REMARK  139  A    between atoms: _382  and  _383
REMARK  140  A    between atoms: _383  and  _384
REMARK                            x       y       z     vdW  Elec       q    Type
REMARK                         _______ _______ _______ _____ _____    ______ ____
ROOT
ATOM      1  CA  SER A   1      18.348  -2.333  24.316  0.00  0.00    +0.163 C 
ENDROOT
BRANCH   1   2
ATOM      2  N   SER A   1      19.404  -1.436  24.777  0.00  0.00    -0.237 NA
ATOM      3  H   SER A   1      19.912  -0.868  24.070  0.00  0.00    +0.142 HD
ENDBRANCH   1   2
BRANCH   1   4
ATOM      4  C   SER A   1      18.870  -3.238  23.234  0.00  0.00    +0.227 C 
ATOM      5  O   SER A   1      19.787  -2.880  22.517  0.00  0.00    -0.287 OA
ENDBRANCH   1   4
BRANCH   1   6
ATOM      6  CB  SER A   1      17.180  -1.529  23.744  0.00  0.00    +0.162 C 
BRANCH   6   7
ATOM      7  OG  SER A   1      16.583  -0.794  24.857  0.00  0.00    -0.380 OA
ATOM      8  H   SER A   1      16.266  -1.435  25.542  0.00  0.00    +0.211 HD
ENDBRANCH   6   7
ENDBRANCH   1   6
TORSDOF 4
REMARK  Name = ../refined-set-2016/4q87/4q87_pocket.pdb
REMARK  140 active torsions:
REMARK  status: ('A' for Active; 'I' for Inactive)
REMARK    1  A    between atoms: _1  and  _3
REMARK    2  A    between atoms: _3  and  _4
REMARK    3  A    between atoms: _3  and  _6
REMARK    4  A    between atoms: _6  and  _7
REMARK    5  A    between atoms: _17  and  _19
REMARK    6  A    between atoms: _19  and  _20
REMARK    7  A    between atoms: _19  and  _22
REMARK    8  A    between atoms: _22  and  _23
REMARK    9  A    between atoms: _28  and  _29
REMARK   10  A    between atoms: _31  and  _33
REMARK   11  A    between atoms: _33  and  _34
REMARK   12  A    between atoms: _33  and  _36
REMARK   13  A    between atoms: _36  and  _37
REMARK   14  A    between atoms: _39  and  _41
REMARK   15  A    between atoms: _41  and  _42
REMARK   16  A    between atoms: _41  and  _44
REMARK   17  A    between atoms: _44  and  _45
REMARK   18  A    between atoms: _50  and  _52
REMARK   19  A    between atoms: _52  and  _53
REMARK   20  A    between atoms: _52  and  _55
REMARK   21  A    between atoms: _55  and  _56
REMARK   22  A    between atoms: _61  and  _63
REMARK   23  A    between atoms: _63  and  _64
REMARK   24  A    between atoms: _67  and  _69
REMARK   25  A    between atoms: _69  and  _70
REMARK   26  A    between atoms: _69  and  _72
REMARK   27  A    between atoms: _72  and  _73
REMARK   28  A    between atoms: _78  and  _80
REMARK   29  A    between atoms: _80  and  _81
REMARK   30  A    between atoms: _80  and  _83
REMARK   31  A    between atoms: _83  and  _84
REMARK   32  A    between atoms: _87  and  _89
REMARK   33  A    between atoms: _89  and  _90
REMARK   34  A    between atoms: _89  and  _92
REMARK   35  A    between atoms: _92  and  _93
REMARK   36  A    between atoms: _93  and  _94
REMARK   37  A    between atoms: _99  and  _101
REMARK   38  A    between atoms: _101  and  _102
REMARK   39  A    between atoms: _101  and  _104
REMARK   40  A    between atoms: _104  and  _105
REMARK   41  A    between atoms: _111  and  _113
REMARK   42  A    between atoms: _124  and  _127
REMARK   43  A    between atoms: _127  and  _128
REMARK   44  A    between atoms: _136  and  _137
REMARK   45  A    between atoms: _145  and  _147
REMARK   46  A    between atoms: _147  and  _148
REMARK   47  A    between atoms: _147  and  _150
REMARK   48  A    between atoms: _150  and  _151
REMARK   49  A    between atoms: _151  and  _152
REMARK   50  A    between atoms: _155  and  _157
REMARK   51  A    between atoms: _157  and  _158
REMARK   52  A    between atoms: _157  and  _160
REMARK   53  A    between atoms: _160  and  _161
REMARK   54  A    between atoms: _166  and  _168
REMARK   55  A    between atoms: _168  and  _169
REMARK   56  A    between atoms: _168  and  _171
REMARK   57  A    between atoms: _171  and  _172
REMARK   58  A    between atoms: _172  and  _173
REMARK   59  A    between atoms: _176  and  _178
REMARK   60  A    between atoms: _178  and  _179
REMARK   61  A    between atoms: _178  and  _181
REMARK   62  A    between atoms: _181  and  _182
REMARK   63  A    between atoms: _185  and  _187
REMARK   64  A    between atoms: _187  and  _188
REMARK   65  A    between atoms: _187  and  _190
REMARK   66  A    between atoms: _190  and  _191
REMARK   67  A    between atoms: _192  and  ZN_393
REMARK   68  A    between atoms: _196  and  _198
REMARK   69  A    between atoms: _198  and  _199
REMARK   70  A    between atoms: _198  and  _201
REMARK   71  A    between atoms: _201  and  _202
REMARK   72  A    between atoms: _205  and  _207
REMARK   73  A    between atoms: _207  and  _208
REMARK   74  A    between atoms: _207  and  _210
REMARK   75  A    between atoms: _213  and  _215
REMARK   76  A    between atoms: _215  and  _216
REMARK   77  A    between atoms: _215  and  _218
REMARK   78  A    between atoms: _218  and  _219
REMARK   79  A    between atoms: _224  and  _226
REMARK   80  A    between atoms: _226  and  _227
REMARK   81  A    between atoms: _226  and  _229
REMARK   82  A    between atoms: _229  and  _230
REMARK   83  A    between atoms: _236  and  _238
REMARK   84  A    between atoms: _238  and  _239
REMARK   85  A    between atoms: _238  and  _241
REMARK   86  A    between atoms: _244  and  _246
REMARK   87  A    between atoms: _246  and  _247
REMARK   88  A    between atoms: _246  and  _249
REMARK   89  A    between atoms: _249  and  _250
REMARK   90  A    between atoms: _253  and  _255
REMARK   91  A    between atoms: _255  and  _256
REMARK   92  A    between atoms: _259  and  _261
REMARK   93  A    between atoms: _261  and  _262
REMARK   94  A    between atoms: _261  and  _264
REMARK   95  A    between atoms: _267  and  _269
REMARK   96  A    between atoms: _269  and  _270
REMARK   97  A    between atoms: _269  and  _272
REMARK   98  A    between atoms: _272  and  _273
REMARK   99  A    between atoms: _275  and  _277
REMARK  100  A    between atoms: _277  and  _278
REMARK  101  A    between atoms: _277  and  _280
REMARK  102  A    between atoms: _280  and  _281
REMARK  103  A    between atoms: _284  and  _286
REMARK  104  A    between atoms: _286  and  _287
REMARK  105  A    between atoms: _286  and  _289
REMARK  106  A    between atoms: _289  and  _290
REMARK  107  A    between atoms: _293  and  _295
REMARK  108  A    between atoms: _295  and  _296
REMARK  109  A    between atoms: _295  and  _298
REMARK  110  A    between atoms: _298  and  _299
REMARK  111  A    between atoms: _303  and  _304
REMARK  112  A    between atoms: _310  and  _311
REMARK  113  A    between atoms: _316  and  _318
REMARK  114  A    between atoms: _318  and  _319
REMARK  115  A    between atoms: _318  and  _321
REMARK  116  A    between atoms: _321  and  _322
REMARK  117  A    between atoms: _325  and  _327
REMARK  118  A    between atoms: _327  and  _328
REMARK  119  A    between atoms: _327  and  _330
REMARK  120  A    between atoms: _330  and  _331
REMARK  121  A    between atoms: _334  and  _336
REMARK  122  A    between atoms: _336  and  _337
REMARK  123  A    between atoms: _336  and  _339
REMARK  124  A    between atoms: _341  and  _343
REMARK  125  A    between atoms: _343  and  _344
REMARK  126  A    between atoms: _343  and  _346
REMARK  127  A    between atoms: _349  and  _351
REMARK  128  A    between atoms: _351  and  _352
REMARK  129  A    between atoms: _351  and  _354
REMARK  130  A    between atoms: _354  and  _355
REMARK  131  A    between atoms: _365  and  _367
REMARK  132  A    between atoms: _367  and  _368
REMARK  133  A    between atoms: _367  and  _370
REMARK  134  A    between atoms: _370  and  _371
REMARK  135  A    between atoms: _376  and  _378
REMARK  136  A    between atoms: _378  and  _379
REMARK  137  A    between atoms: _378  and  _381
REMARK  138  A    between atoms: _381  and  _382
REMARK  139  A    between atoms: _382  and  _383
REMARK  140  A    between atoms: _383  and  _384
REMARK                            x       y       z     vdW  Elec       q    Type
REMARK                         _______ _______ _______ _____ _____    ______ ____
ROOT
ATOM      1  CB  ASN A   1      18.469   1.911   5.396  0.00  0.00    +0.110 C 
ENDROOT
BRANCH   1   2
ATOM      2  CG  ASN A   1      18.255   1.046   6.615  0.00  0.00    +0.221 C 
ATOM      3  ND2 ASN A   1      17.835   1.653   7.691  0.00  0.00    -0.329 N 
ATOM      4 HD21 ASN A   1      17.648   1.107   8.557  0.00  0.00    +0.145 HD
ATOM      5 HD22 ASN A   1      17.687   2.682   7.683  0.00  0.00    +0.145 HD
ATOM      6  OD1 ASN A   1      18.446  -0.143   6.560  0.00  0.00    -0.275 OA
ENDBRANCH   1   2
BRANCH   1   7
ATOM      7  CA  ASN A   1      18.809   1.068   4.158  0.00  0.00    +0.142 C 
BRANCH   7   8
ATOM      8  N   ASN A   1      17.666   0.168   3.665  0.00  0.00    -0.239 NA
ATOM      9  H   ASN A   1      17.107  -0.394   4.339  0.00  0.00    +0.142 HD
ENDBRANCH   7   8
BRANCH   7  10
ATOM     10  C   ASN A   1      20.098   0.276   4.400  0.00  0.00    +0.225 C 
ATOM     11  O   ASN A   1      21.096   0.792   4.945  0.00  0.00    -0.287 OA
ENDBRANCH   7  10
ENDBRANCH   1   7
TORSDOF 4
REMARK  Name = ../refined-set-2016/4q87/4q87_pocket.pdb
REMARK  140 active torsions:
REMARK  status: ('A' for Active; 'I' for Inactive)
REMARK    1  A    between atoms: _1  and  _3
REMARK    2  A    between atoms: _3  and  _4
REMARK    3  A    between atoms: _3  and  _6
REMARK    4  A    between atoms: _6  and  _7
REMARK    5  A    between atoms: _17  and  _19
REMARK    6  A    between atoms: _19  and  _20
REMARK    7  A    between atoms: _19  and  _22
REMARK    8  A    between atoms: _22  and  _23
REMARK    9  A    between atoms: _28  and  _29
REMARK   10  A    between atoms: _31  and  _33
REMARK   11  A    between atoms: _33  and  _34
REMARK   12  A    between atoms: _33  and  _36
REMARK   13  A    between atoms: _36  and  _37
REMARK   14  A    between atoms: _39  and  _41
REMARK   15  A    between atoms: _41  and  _42
REMARK   16  A    between atoms: _41  and  _44
REMARK   17  A    between atoms: _44  and  _45
REMARK   18  A    between atoms: _50  and  _52
REMARK   19  A    between atoms: _52  and  _53
REMARK   20  A    between atoms: _52  and  _55
REMARK   21  A    between atoms: _55  and  _56
REMARK   22  A    between atoms: _61  and  _63
REMARK   23  A    between atoms: _63  and  _64
REMARK   24  A    between atoms: _67  and  _69
REMARK   25  A    between atoms: _69  and  _70
REMARK   26  A    between atoms: _69  and  _72
REMARK   27  A    between atoms: _72  and  _73
REMARK   28  A    between atoms: _78  and  _80
REMARK   29  A    between atoms: _80  and  _81
REMARK   30  A    between atoms: _80  and  _83
REMARK   31  A    between atoms: _83  and  _84
REMARK   32  A    between atoms: _87  and  _89
REMARK   33  A    between atoms: _89  and  _90
REMARK   34  A    between atoms: _89  and  _92
REMARK   35  A    between atoms: _92  and  _93
REMARK   36  A    between atoms: _93  and  _94
REMARK   37  A    between atoms: _99  and  _101
REMARK   38  A    between atoms: _101  and  _102
REMARK   39  A    between atoms: _101  and  _104
REMARK   40  A    between atoms: _104  and  _105
REMARK   41  A    between atoms: _111  and  _113
REMARK   42  A    between atoms: _124  and  _127
REMARK   43  A    between atoms: _127  and  _128
REMARK   44  A    between atoms: _136  and  _137
REMARK   45  A    between atoms: _145  and  _147
REMARK   46  A    between atoms: _147  and  _148
REMARK   47  A    between atoms: _147  and  _150
REMARK   48  A    between atoms: _150  and  _151
REMARK   49  A    between atoms: _151  and  _152
REMARK   50  A    between atoms: _155  and  _157
REMARK   51  A    between atoms: _157  and  _158
REMARK   52  A    between atoms: _157  and  _160
REMARK   53  A    between atoms: _160  and  _161
REMARK   54  A    between atoms: _166  and  _168
REMARK   55  A    between atoms: _168  and  _169
REMARK   56  A    between atoms: _168  and  _171
REMARK   57  A    between atoms: _171  and  _172
REMARK   58  A    between atoms: _172  and  _173
REMARK   59  A    between atoms: _176  and  _178
REMARK   60  A    between atoms: _178  and  _179
REMARK   61  A    between atoms: _178  and  _181
REMARK   62  A    between atoms: _181  and  _182
REMARK   63  A    between atoms: _185  and  _187
REMARK   64  A    between atoms: _187  and  _188
REMARK   65  A    between atoms: _187  and  _190
REMARK   66  A    between atoms: _190  and  _191
REMARK   67  A    between atoms: _192  and  ZN_393
REMARK   68  A    between atoms: _196  and  _198
REMARK   69  A    between atoms: _198  and  _199
REMARK   70  A    between atoms: _198  and  _201
REMARK   71  A    between atoms: _201  and  _202
REMARK   72  A    between atoms: _205  and  _207
REMARK   73  A    between atoms: _207  and  _208
REMARK   74  A    between atoms: _207  and  _210
REMARK   75  A    between atoms: _213  and  _215
REMARK   76  A    between atoms: _215  and  _216
REMARK   77  A    between atoms: _215  and  _218
REMARK   78  A    between atoms: _218  and  _219
REMARK   79  A    between atoms: _224  and  _226
REMARK   80  A    between atoms: _226  and  _227
REMARK   81  A    between atoms: _226  and  _229
REMARK   82  A    between atoms: _229  and  _230
REMARK   83  A    between atoms: _236  and  _238
REMARK   84  A    between atoms: _238  and  _239
REMARK   85  A    between atoms: _238  and  _241
REMARK   86  A    between atoms: _244  and  _246
REMARK   87  A    between atoms: _246  and  _247
REMARK   88  A    between atoms: _246  and  _249
REMARK   89  A    between atoms: _249  and  _250
REMARK   90  A    between atoms: _253  and  _255
REMARK   91  A    between atoms: _255  and  _256
REMARK   92  A    between atoms: _259  and  _261
REMARK   93  A    between atoms: _261  and  _262
REMARK   94  A    between atoms: _261  and  _264
REMARK   95  A    between atoms: _267  and  _269
REMARK   96  A    between atoms: _269  and  _270
REMARK   97  A    between atoms: _269  and  _272
REMARK   98  A    between atoms: _272  and  _273
REMARK   99  A    between atoms: _275  and  _277
REMARK  100  A    between atoms: _277  and  _278
REMARK  101  A    between atoms: _277  and  _280
REMARK  102  A    between atoms: _280  and  _281
REMARK  103  A    between atoms: _284  and  _286
REMARK  104  A    between atoms: _286  and  _287
REMARK  105  A    between atoms: _286  and  _289
REMARK  106  A    between atoms: _289  and  _290
REMARK  107  A    between atoms: _293  and  _295
REMARK  108  A    between atoms: _295  and  _296
REMARK  109  A    between atoms: _295  and  _298
REMARK  110  A    between atoms: _298  and  _299
REMARK  111  A    between atoms: _303  and  _304
REMARK  112  A    between atoms: _310  and  _311
REMARK  113  A    between atoms: _316  and  _318
REMARK  114  A    between atoms: _318  and  _319
REMARK  115  A    between atoms: _318  and  _321
REMARK  116  A    between atoms: _321  and  _322
REMARK  117  A    between atoms: _325  and  _327
REMARK  118  A    between atoms: _327  and  _328
REMARK  119  A    between atoms: _327  and  _330
REMARK  120  A    between atoms: _330  and  _331
REMARK  121  A    between atoms: _334  and  _336
REMARK  122  A    between atoms: _336  and  _337
REMARK  123  A    between atoms: _336  and  _339
REMARK  124  A    between atoms: _341  and  _343
REMARK  125  A    between atoms: _343  and  _344
REMARK  126  A    between atoms: _343  and  _346
REMARK  127  A    between atoms: _349  and  _351
REMARK  128  A    between atoms: _351  and  _352
REMARK  129  A    between atoms: _351  and  _354
REMARK  130  A    between atoms: _354  and  _355
REMARK  131  A    between atoms: _365  and  _367
REMARK  132  A    between atoms: _367  and  _368
REMARK  133  A    between atoms: _367  and  _370
REMARK  134  A    between atoms: _370  and  _371
REMARK  135  A    between atoms: _376  and  _378
REMARK  136  A    between atoms: _378  and  _379
REMARK  137  A    between atoms: _378  and  _381
REMARK  138  A    between atoms: _381  and  _382
REMARK  139  A    between atoms: _382  and  _383
REMARK  140  A    between atoms: _383  and  _384
REMARK                            x       y       z     vdW  Elec       q    Type
REMARK                         _______ _______ _______ _____ _____    ______ ____
ROOT
ATOM      1  CA  HIS A   1      20.362  -2.984   7.572  0.00  0.00    +0.151 C 
ENDROOT
BRANCH   1   2
ATOM      2  C   HIS A   1      18.952  -3.579   7.789  0.00  0.00    +0.239 C 
ATOM      3  O   HIS A   1      18.785  -4.573   8.516  0.00  0.00    -0.274 OA
ATOM      4  N   ALA A   2      17.931  -2.923   7.239  0.00  0.00    -0.298 N 
ATOM      5  H   ALA A   2      18.134  -2.071   6.678  0.00  0.00    +0.150 HD
BRANCH   4   6
ATOM      6  CA  ALA A   2      16.531  -3.347   7.388  0.00  0.00    +0.137 C 
ATOM      7  CB  ALA A   2      15.930  -2.972   8.777  0.00  0.00    +0.030 C 
BRANCH   6   8
ATOM      8  C   ALA A   2      15.821  -2.594   6.262  0.00  0.00    +0.227 C 
ATOM      9  O   ALA A   2      16.493  -1.963   5.438  0.00  0.00    -0.286 OA
ENDBRANCH   6   8
ENDBRANCH   4   6
ENDBRANCH   1   2
BRANCH   1  10
ATOM     10  N   HIS A   1      20.435  -2.268   6.299  0.00  0.00    -0.238 NA
ATOM     11  H   HIS A   1      19.738  -1.522   6.099  0.00  0.00    +0.142 HD
ENDBRANCH   1  10
BRANCH   1  12
ATOM     12  CB  HIS A   1      20.699  -2.015   8.721  0.00  0.00    +0.074 C 
BRANCH  12  13
ATOM     13  CG  HIS A   1      22.000  -1.309   8.526  0.00  0.00    +0.082 A 
ATOM     14  CD2 HIS A   1      23.266  -1.753   8.669  0.00  0.00    +0.115 A 
ATOM     15  NE2 HIS A   1      24.102  -0.706   8.362  0.00  0.00    -0.221 NA
ATOM     16  CE1 HIS A   1      23.371   0.331   7.979  0.00  0.00    +0.199 A 
ATOM     17  ND1 HIS A   1      22.095  -0.004   8.088  0.00  0.00    -0.227 NA
ENDBRANCH  12  13
ENDBRANCH   1  12
TORSDOF 6
REMARK  Name = ../refined-set-2016/4q87/4q87_pocket.pdb
REMARK  140 active torsions:
REMARK  status: ('A' for Active; 'I' for Inactive)
REMARK    1  A    between atoms: _1  and  _3
REMARK    2  A    between atoms: _3  and  _4
REMARK    3  A    between atoms: _3  and  _6
REMARK    4  A    between atoms: _6  and  _7
REMARK    5  A    between atoms: _17  and  _19
REMARK    6  A    between atoms: _19  and  _20
REMARK    7  A    between atoms: _19  and  _22
REMARK    8  A    between atoms: _22  and  _23
REMARK    9  A    between atoms: _28  and  _29
REMARK   10  A    between atoms: _31  and  _33
REMARK   11  A    between atoms: _33  and  _34
REMARK   12  A    between atoms: _33  and  _36
REMARK   13  A    between atoms: _36  and  _37
REMARK   14  A    between atoms: _39  and  _41
REMARK   15  A    between atoms: _41  and  _42
REMARK   16  A    between atoms: _41  and  _44
REMARK   17  A    between atoms: _44  and  _45
REMARK   18  A    between atoms: _50  and  _52
REMARK   19  A    between atoms: _52  and  _53
REMARK   20  A    between atoms: _52  and  _55
REMARK   21  A    between atoms: _55  and  _56
REMARK   22  A    between atoms: _61  and  _63
REMARK   23  A    between atoms: _63  and  _64
REMARK   24  A    between atoms: _67  and  _69
REMARK   25  A    between atoms: _69  and  _70
REMARK   26  A    between atoms: _69  and  _72
REMARK   27  A    between atoms: _72  and  _73
REMARK   28  A    between atoms: _78  and  _80
REMARK   29  A    between atoms: _80  and  _81
REMARK   30  A    between atoms: _80  and  _83
REMARK   31  A    between atoms: _83  and  _84
REMARK   32  A    between atoms: _87  and  _89
REMARK   33  A    between atoms: _89  and  _90
REMARK   34  A    between atoms: _89  and  _92
REMARK   35  A    between atoms: _92  and  _93
REMARK   36  A    between atoms: _93  and  _94
REMARK   37  A    between atoms: _99  and  _101
REMARK   38  A    between atoms: _101  and  _102
REMARK   39  A    between atoms: _101  and  _104
REMARK   40  A    between atoms: _104  and  _105
REMARK   41  A    between atoms: _111  and  _113
REMARK   42  A    between atoms: _124  and  _127
REMARK   43  A    between atoms: _127  and  _128
REMARK   44  A    between atoms: _136  and  _137
REMARK   45  A    between atoms: _145  and  _147
REMARK   46  A    between atoms: _147  and  _148
REMARK   47  A    between atoms: _147  and  _150
REMARK   48  A    between atoms: _150  and  _151
REMARK   49  A    between atoms: _151  and  _152
REMARK   50  A    between atoms: _155  and  _157
REMARK   51  A    between atoms: _157  and  _158
REMARK   52  A    between atoms: _157  and  _160
REMARK   53  A    between atoms: _160  and  _161
REMARK   54  A    between atoms: _166  and  _168
REMARK   55  A    between atoms: _168  and  _169
REMARK   56  A    between atoms: _168  and  _171
REMARK   57  A    between atoms: _171  and  _172
REMARK   58  A    between atoms: _172  and  _173
REMARK   59  A    between atoms: _176  and  _178
REMARK   60  A    between atoms: _178  and  _179
REMARK   61  A    between atoms: _178  and  _181
REMARK   62  A    between atoms: _181  and  _182
REMARK   63  A    between atoms: _185  and  _187
REMARK   64  A    between atoms: _187  and  _188
REMARK   65  A    between atoms: _187  and  _190
REMARK   66  A    between atoms: _190  and  _191
REMARK   67  A    between atoms: _192  and  ZN_393
REMARK   68  A    between atoms: _196  and  _198
REMARK   69  A    between atoms: _198  and  _199
REMARK   70  A    between atoms: _198  and  _201
REMARK   71  A    between atoms: _201  and  _202
REMARK   72  A    between atoms: _205  and  _207
REMARK   73  A    between atoms: _207  and  _208
REMARK   74  A    between atoms: _207  and  _210
REMARK   75  A    between atoms: _213  and  _215
REMARK   76  A    between atoms: _215  and  _216
REMARK   77  A    between atoms: _215  and  _218
REMARK   78  A    between atoms: _218  and  _219
REMARK   79  A    between atoms: _224  and  _226
REMARK   80  A    between atoms: _226  and  _227
REMARK   81  A    between atoms: _226  and  _229
REMARK   82  A    between atoms: _229  and  _230
REMARK   83  A    between atoms: _236  and  _238
REMARK   84  A    between atoms: _238  and  _239
REMARK   85  A    between atoms: _238  and  _241
REMARK   86  A    between atoms: _244  and  _246
REMARK   87  A    between atoms: _246  and  _247
REMARK   88  A    between atoms: _246  and  _249
REMARK   89  A    between atoms: _249  and  _250
REMARK   90  A    between atoms: _253  and  _255
REMARK   91  A    between atoms: _255  and  _256
REMARK   92  A    between atoms: _259  and  _261
REMARK   93  A    between atoms: _261  and  _262
REMARK   94  A    between atoms: _261  and  _264
REMARK   95  A    between atoms: _267  and  _269
REMARK   96  A    between atoms: _269  and  _270
REMARK   97  A    between atoms: _269  and  _272
REMARK   98  A    between atoms: _272  and  _273
REMARK   99  A    between atoms: _275  and  _277
REMARK  100  A    between atoms: _277  and  _278
REMARK  101  A    between atoms: _277  and  _280
REMARK  102  A    between atoms: _280  and  _281
REMARK  103  A    between atoms: _284  and  _286
REMARK  104  A    between atoms: _286  and  _287
REMARK  105  A    between atoms: _286  and  _289
REMARK  106  A    between atoms: _289  and  _290
REMARK  107  A    between atoms: _293  and  _295
REMARK  108  A    between atoms: _295  and  _296
REMARK  109  A    between atoms: _295  and  _298
REMARK  110  A    between atoms: _298  and  _299
REMARK  111  A    between atoms: _303  and  _304
REMARK  112  A    between atoms: _310  and  _311
REMARK  113  A    between atoms: _316  and  _318
REMARK  114  A    between atoms: _318  and  _319
REMARK  115  A    between atoms: _318  and  _321
REMARK  116  A    between atoms: _321  and  _322
REMARK  117  A    between atoms: _325  and  _327
REMARK  118  A    between atoms: _327  and  _328
REMARK  119  A    between atoms: _327  and  _330
REMARK  120  A    between atoms: _330  and  _331
REMARK  121  A    between atoms: _334  and  _336
REMARK  122  A    between atoms: _336  and  _337
REMARK  123  A    between atoms: _336  and  _339
REMARK  124  A    between atoms: _341  and  _343
REMARK  125  A    between atoms: _343  and  _344
REMARK  126  A    between atoms: _343  and  _346
REMARK  127  A    between atoms: _349  and  _351
REMARK  128  A    between atoms: _351  and  _352
REMARK  129  A    between atoms: _351  and  _354
REMARK  130  A    between atoms: _354  and  _355
REMARK  131  A    between atoms: _365  and  _367
REMARK  132  A    between atoms: _367  and  _368
REMARK  133  A    between atoms: _367  and  _370
REMARK  134  A    between atoms: _370  and  _371
REMARK  135  A    between atoms: _376  and  _378
REMARK  136  A    between atoms: _378  and  _379
REMARK  137  A    between atoms: _378  and  _381
REMARK  138  A    between atoms: _381  and  _382
REMARK  139  A    between atoms: _382  and  _383
REMARK  140  A    between atoms: _383  and  _384
REMARK                            x       y       z     vdW  Elec       q    Type
REMARK                         _______ _______ _______ _____ _____    ______ ____
ROOT
ATOM      1  CB  ASN A   1      12.746   2.710   6.887  0.00  0.00    +0.110 C 
ENDROOT
BRANCH   1   2
ATOM      2  CG  ASN A   1      13.850   2.524   7.904  0.00  0.00    +0.221 C 
ATOM      3  OD1 ASN A   1      13.910   1.505   8.661  0.00  0.00    -0.275 OA
ATOM      4  ND2 ASN A   1      14.800   3.467   7.918  0.00  0.00    -0.329 N 
ATOM      5 HD21 ASN A   1      15.613   3.376   8.560  0.00  0.00    +0.145 HD
ATOM      6 HD22 ASN A   1      14.725   4.290   7.287  0.00  0.00    +0.145 HD
ENDBRANCH   1   2
BRANCH   1   7
ATOM      7  CA  ASN A   1      11.960   1.408   6.609  0.00  0.00    +0.142 C 
BRANCH   7   8
ATOM      8  N   ASN A   1      12.736   0.431   5.866  0.00  0.00    -0.239 NA
ATOM      9  H   ASN A   1      13.223   0.727   4.996  0.00  0.00    +0.142 HD
ENDBRANCH   7   8
BRANCH   7  10
ATOM     10  C   ASN A   1      10.735   1.773   5.812  0.00  0.00    +0.225 C 
ATOM     11  O   ASN A   1      10.876   2.151   4.689  0.00  0.00    -0.287 OA
ENDBRANCH   7  10
ENDBRANCH   1   7
TORSDOF 4
REMARK  Name = ../refined-set-2016/4q87/4q87_pocket.pdb
REMARK  140 active torsions:
REMARK  status: ('A' for Active; 'I' for Inactive)
REMARK    1  A    between atoms: _1  and  _3
REMARK    2  A    between atoms: _3  and  _4
REMARK    3  A    between atoms: _3  and  _6
REMARK    4  A    between atoms: _6  and  _7
REMARK    5  A    between atoms: _17  and  _19
REMARK    6  A    between atoms: _19  and  _20
REMARK    7  A    between atoms: _19  and  _22
REMARK    8  A    between atoms: _22  and  _23
REMARK    9  A    between atoms: _28  and  _29
REMARK   10  A    between atoms: _31  and  _33
REMARK   11  A    between atoms: _33  and  _34
REMARK   12  A    between atoms: _33  and  _36
REMARK   13  A    between atoms: _36  and  _37
REMARK   14  A    between atoms: _39  and  _41
REMARK   15  A    between atoms: _41  and  _42
REMARK   16  A    between atoms: _41  and  _44
REMARK   17  A    between atoms: _44  and  _45
REMARK   18  A    between atoms: _50  and  _52
REMARK   19  A    between atoms: _52  and  _53
REMARK   20  A    between atoms: _52  and  _55
REMARK   21  A    between atoms: _55  and  _56
REMARK   22  A    between atoms: _61  and  _63
REMARK   23  A    between atoms: _63  and  _64
REMARK   24  A    between atoms: _67  and  _69
REMARK   25  A    between atoms: _69  and  _70
REMARK   26  A    between atoms: _69  and  _72
REMARK   27  A    between atoms: _72  and  _73
REMARK   28  A    between atoms: _78  and  _80
REMARK   29  A    between atoms: _80  and  _81
REMARK   30  A    between atoms: _80  and  _83
REMARK   31  A    between atoms: _83  and  _84
REMARK   32  A    between atoms: _87  and  _89
REMARK   33  A    between atoms: _89  and  _90
REMARK   34  A    between atoms: _89  and  _92
REMARK   35  A    between atoms: _92  and  _93
REMARK   36  A    between atoms: _93  and  _94
REMARK   37  A    between atoms: _99  and  _101
REMARK   38  A    between atoms: _101  and  _102
REMARK   39  A    between atoms: _101  and  _104
REMARK   40  A    between atoms: _104  and  _105
REMARK   41  A    between atoms: _111  and  _113
REMARK   42  A    between atoms: _124  and  _127
REMARK   43  A    between atoms: _127  and  _128
REMARK   44  A    between atoms: _136  and  _137
REMARK   45  A    between atoms: _145  and  _147
REMARK   46  A    between atoms: _147  and  _148
REMARK   47  A    between atoms: _147  and  _150
REMARK   48  A    between atoms: _150  and  _151
REMARK   49  A    between atoms: _151  and  _152
REMARK   50  A    between atoms: _155  and  _157
REMARK   51  A    between atoms: _157  and  _158
REMARK   52  A    between atoms: _157  and  _160
REMARK   53  A    between atoms: _160  and  _161
REMARK   54  A    between atoms: _166  and  _168
REMARK   55  A    between atoms: _168  and  _169
REMARK   56  A    between atoms: _168  and  _171
REMARK   57  A    between atoms: _171  and  _172
REMARK   58  A    between atoms: _172  and  _173
REMARK   59  A    between atoms: _176  and  _178
REMARK   60  A    between atoms: _178  and  _179
REMARK   61  A    between atoms: _178  and  _181
REMARK   62  A    between atoms: _181  and  _182
REMARK   63  A    between atoms: _185  and  _187
REMARK   64  A    between atoms: _187  and  _188
REMARK   65  A    between atoms: _187  and  _190
REMARK   66  A    between atoms: _190  and  _191
REMARK   67  A    between atoms: _192  and  ZN_393
REMARK   68  A    between atoms: _196  and  _198
REMARK   69  A    between atoms: _198  and  _199
REMARK   70  A    between atoms: _198  and  _201
REMARK   71  A    between atoms: _201  and  _202
REMARK   72  A    between atoms: _205  and  _207
REMARK   73  A    between atoms: _207  and  _208
REMARK   74  A    between atoms: _207  and  _210
REMARK   75  A    between atoms: _213  and  _215
REMARK   76  A    between atoms: _215  and  _216
REMARK   77  A    between atoms: _215  and  _218
REMARK   78  A    between atoms: _218  and  _219
REMARK   79  A    between atoms: _224  and  _226
REMARK   80  A    between atoms: _226  and  _227
REMARK   81  A    between atoms: _226  and  _229
REMARK   82  A    between atoms: _229  and  _230
REMARK   83  A    between atoms: _236  and  _238
REMARK   84  A    between atoms: _238  and  _239
REMARK   85  A    between atoms: _238  and  _241
REMARK   86  A    between atoms: _244  and  _246
REMARK   87  A    between atoms: _246  and  _247
REMARK   88  A    between atoms: _246  and  _249
REMARK   89  A    between atoms: _249  and  _250
REMARK   90  A    between atoms: _253  and  _255
REMARK   91  A    between atoms: _255  and  _256
REMARK   92  A    between atoms: _259  and  _261
REMARK   93  A    between atoms: _261  and  _262
REMARK   94  A    between atoms: _261  and  _264
REMARK   95  A    between atoms: _267  and  _269
REMARK   96  A    between atoms: _269  and  _270
REMARK   97  A    between atoms: _269  and  _272
REMARK   98  A    between atoms: _272  and  _273
REMARK   99  A    between atoms: _275  and  _277
REMARK  100  A    between atoms: _277  and  _278
REMARK  101  A    between atoms: _277  and  _280
REMARK  102  A    between atoms: _280  and  _281
REMARK  103  A    between atoms: _284  and  _286
REMARK  104  A    between atoms: _286  and  _287
REMARK  105  A    between atoms: _286  and  _289
REMARK  106  A    between atoms: _289  and  _290
REMARK  107  A    between atoms: _293  and  _295
REMARK  108  A    between atoms: _295  and  _296
REMARK  109  A    between atoms: _295  and  _298
REMARK  110  A    between atoms: _298  and  _299
REMARK  111  A    between atoms: _303  and  _304
REMARK  112  A    between atoms: _310  and  _311
REMARK  113  A    between atoms: _316  and  _318
REMARK  114  A    between atoms: _318  and  _319
REMARK  115  A    between atoms: _318  and  _321
REMARK  116  A    between atoms: _321  and  _322
REMARK  117  A    between atoms: _325  and  _327
REMARK  118  A    between atoms: _327  and  _328
REMARK  119  A    between atoms: _327  and  _330
REMARK  120  A    between atoms: _330  and  _331
REMARK  121  A    between atoms: _334  and  _336
REMARK  122  A    between atoms: _336  and  _337
REMARK  123  A    between atoms: _336  and  _339
REMARK  124  A    between atoms: _341  and  _343
REMARK  125  A    between atoms: _343  and  _344
REMARK  126  A    between atoms: _343  and  _346
REMARK  127  A    between atoms: _349  and  _351
REMARK  128  A    between atoms: _351  and  _352
REMARK  129  A    between atoms: _351  and  _354
REMARK  130  A    between atoms: _354  and  _355
REMARK  131  A    between atoms: _365  and  _367
REMARK  132  A    between atoms: _367  and  _368
REMARK  133  A    between atoms: _367  and  _370
REMARK  134  A    between atoms: _370  and  _371
REMARK  135  A    between atoms: _376  and  _378
REMARK  136  A    between atoms: _378  and  _379
REMARK  137  A    between atoms: _378  and  _381
REMARK  138  A    between atoms: _381  and  _382
REMARK  139  A    between atoms: _382  and  _383
REMARK  140  A    between atoms: _383  and  _384
REMARK                            x       y       z     vdW  Elec       q    Type
REMARK                         _______ _______ _______ _____ _____    ______ ____
ROOT
ATOM      1  C   UNK A   4      10.852  -1.496  10.370  0.00  0.00    +0.000 C 
ATOM      2  C   UNK A   4      10.743  -2.764  11.184  0.00  0.00    +0.000 C 
ATOM      3  O   UNK A   4      10.088  -2.799  12.245  0.00  0.00    +0.000 OA
ATOM      4  N   VAL A   5      11.449  -3.786  10.687  0.00  0.00    +0.000 N 
ATOM      5  CA  VAL A   5      11.459  -5.047  11.408  0.00  0.00    +0.000 C 
ATOM      6  C   VAL A   5      12.905  -5.468  11.611  0.00  0.00    +0.000 C 
ATOM      7  N   UNK A   6      13.071  -6.386  12.569  0.00  0.00    +0.000 N 
ATOM      8  H   UNK A   6      12.289  -6.552  13.235  0.00  0.00    +0.000 HD
ATOM      9  C   UNK A   6      14.296  -7.168  12.728  0.00  0.00    +0.000 C 
ATOM     10  C   UNK A   6      14.965  -6.938  14.099  0.00  0.00    +0.000 C 
ATOM     11  C   UNK A   6      15.235  -5.493  14.420  0.00  0.00    +0.000 A 
ATOM     12  C   UNK A   6      14.442  -4.431  14.766  0.00  0.00    +0.000 A 
ATOM     13  N   UNK A   6      15.262  -3.337  14.882  0.00  0.00    +0.000 N 
ATOM     14 ZN   UNK A   6      14.534  -1.490  15.479  0.00  0.00    +0.000 Zn
ATOM     15  N   UNK A   4      13.631  -0.765  13.804  0.00  0.00    +0.000 N 
ATOM     16  C   UNK A   4      13.062   0.428  13.627  0.00  0.00    +0.000 A 
ATOM     17  N   UNK A   4      12.590   0.497  12.382  0.00  0.00    +0.000 NA
ATOM     18  C   UNK A   4      12.862  -0.695  11.739  0.00  0.00    +0.000 A 
ATOM     19  C   UNK A   4      13.485  -1.498  12.638  0.00  0.00    +0.000 A 
ATOM     20  C   UNK A   6      16.507  -3.703  14.618  0.00  0.00    +0.000 A 
ATOM     21  N   UNK A   6      16.502  -4.972  14.214  0.00  0.00    +0.000 NA
ATOM     22  O   VAL A   5      13.806  -5.079  10.916  0.00  0.00    +0.000 OA
ATOM     23  H   VAL A   5      11.981  -3.679   9.800  0.00  0.00    +0.000 HD
ATOM     24  C   UNK A   4      12.351  -0.962  10.367  0.00  0.00    +0.000 C 
ENDROOT
BRANCH  14  25
ATOM     25  N   UNK A   6      12.959  -2.400  16.659  0.00  0.00    +0.000 N 
ATOM     26  C   UNK A   6      13.275  -3.316  17.562  0.00  0.00    +0.000 A 
ATOM     27  N   UNK A   6      12.142  -3.749  18.121  0.00  0.00    +0.000 NA
ATOM     28  C   UNK A   6      11.077  -3.055  17.555  0.00  0.00    +0.000 A 
ATOM     29  C   UNK A   6      11.591  -2.203  16.639  0.00  0.00    +0.000 A 
BRANCH  29  30
ATOM     30  C   UNK A   6      10.900  -1.247  15.702  0.00  0.00    +0.000 C 
BRANCH  30  31
ATOM     31  C   UNK A   6       9.404  -1.515  15.672  0.00  0.00    +0.000 C 
BRANCH  31  32
ATOM     32  C   UNK A   6       8.724  -0.347  14.980  0.00  0.00    +0.000 C 
ATOM     33  N   UNK A   4       7.767   0.279  15.653  0.00  0.00    +0.000 N 
ATOM     34  H   UNK A   4       7.470  -0.112  16.570  0.00  0.00    +0.000 HD
ATOM     35  O   UNK A   6       9.139   0.028  13.884  0.00  0.00    +0.000 OA
BRANCH  33  36
ATOM     36  C   UNK A   4       7.092   1.523  15.157  0.00  0.00    +0.000 C 
BRANCH  36  37
ATOM     37  C   UNK A   4       7.668   2.680  15.932  0.00  0.00    +0.000 C 
ATOM     38  O   UNK A   4       7.581   2.711  17.176  0.00  0.00    +0.000 OA
ATOM     39  N   VAL A   5       8.397   3.537  15.224  0.00  0.00    +0.000 N 
ATOM     40  H   VAL A   5       8.373   3.481  14.186  0.00  0.00    +0.000 HD
BRANCH  39  41
ATOM     41  CA  VAL A   5       9.252   4.581  15.876  0.00  0.00    +0.000 C 
BRANCH  41  42
ATOM     42  C   VAL A   5       8.519   5.901  15.900  0.00  0.00    +0.000 C 
ATOM     43  N   UNK A   6       8.495   6.517  17.083  0.00  0.00    +0.000 N 
ATOM     44  H   UNK A   6       8.984   6.087  17.894  0.00  0.00    +0.000 HD
ATOM     45  O   VAL A   5       8.056   6.348  14.878  0.00  0.00    +0.000 OA
BRANCH  43  46
ATOM     46  C   UNK A   6       7.786   7.798  17.258  0.00  0.00    +0.000 C 
BRANCH  46  47
ATOM     47  C   UNK A   6       8.662   8.792  17.993  0.00  0.00    +0.000 C 
ATOM     48  O   UNK A   6       9.355   8.391  18.934  0.00  0.00    +0.000 OA
ENDBRANCH  46  47
BRANCH  46  49
ATOM     49  C   UNK A   6       6.485   7.600  18.099  0.00  0.00    +0.000 C 
BRANCH  49  50
ATOM     50  C   UNK A   6       5.588   6.485  17.645  0.00  0.00    +0.000 A 
ATOM     51  N   UNK A   6       5.930   5.159  17.877  0.00  0.00    +0.000 NA
ATOM     52  C   UNK A   6       4.925   4.374  17.486  0.00  0.00    +0.000 A 
ATOM     53  N   UNK A   6       3.993   5.136  16.912  0.00  0.00    +0.000 NA
ATOM     54  C   UNK A   6       4.364   6.465  17.027  0.00  0.00    +0.000 A 
ENDBRANCH  49  50
ENDBRANCH  46  49
ENDBRANCH  43  46
ENDBRANCH  41  42
BRANCH  41  55
ATOM     55  CB  VAL A   5      10.562   4.718  15.142  0.00  0.00    +0.000 C 
ATOM     56  CG2 VAL A   5      11.426   5.856  15.817  0.00  0.00    +0.000 C 
ATOM     57  CG1 VAL A   5      11.314   3.380  15.075  0.00  0.00    +0.000 C 
ENDBRANCH  41  55
ENDBRANCH  39  41
ENDBRANCH  36  37
BRANCH  36  58
ATOM     58  C   UNK A   4       5.575   1.439  15.328  0.00  0.00    +0.000 C 
BRANCH  58  59
ATOM     59  C   UNK A   4       4.934   0.367  14.453  0.00  0.00    +0.000 C 
ATOM     60  C   UNK A   4       4.149  -0.590  15.308  0.00  0.00    +0.000 C 
ATOM     61  C   UNK A   4       4.015   1.029  13.463  0.00  0.00    +0.000 C 
ENDBRANCH  58  59
ENDBRANCH  36  58
ENDBRANCH  33  36
ENDBRANCH  31  32
BRANCH  31  62
ATOM     62  N   UNK A   6       9.135  -2.726  14.903  0.00  0.00    +0.000 N 
ATOM     63  C   LEU A   2       8.479  -3.775  15.392  0.00  0.00    +0.000 C 
ATOM     64  O   LEU A   2       8.071  -3.835  16.514  0.00  0.00    +0.000 OA
ATOM     65  H   UNK A   6       9.474  -2.771  13.921  0.00  0.00    +0.000 HD
BRANCH  63  66
ATOM     66  CA  LEU A   2       8.250  -4.916  14.425  0.00  0.00    +0.000 C 
BRANCH  66  67
ATOM     67  N   LEU A   2       8.650  -6.160  15.049  0.00  0.00    +0.000 N 
ATOM     68  H   LEU A   2       7.943  -6.649  15.633  0.00  0.00    +0.000 HD
ATOM     69  C   GLU A   1       9.844  -6.727  14.937  0.00  0.00    +0.000 C 
ATOM     70  O   GLU A   1      10.774  -6.308  14.231  0.00  0.00    +0.000 OA
BRANCH  69  71
ATOM     71  CA  GLU A   1      10.025  -8.001  15.777  0.00  0.00    +0.000 C 
BRANCH  71  72
ATOM     72  N   GLU A   1      10.553  -9.027  14.918  0.00  0.00    +0.000 NA
ATOM     73  H   GLU A   1      11.202  -8.760  14.150  0.00  0.00    +0.000 HD
ENDBRANCH  71  72
BRANCH  71  74
ATOM     74  CB  GLU A   1      11.001  -7.782  16.965  0.00  0.00    +0.000 C 
BRANCH  74  75
ATOM     75  CG  GLU A   1      10.507  -6.812  18.039  0.00  0.00    +0.000 C 
BRANCH  75  76
ATOM     76  CD  GLU A   1      11.456  -6.792  19.245  0.00  0.00    +0.000 C 
ATOM     77  OE2 GLU A   1      11.490  -5.695  19.846  0.00  0.00    +0.000 OA
ATOM     78  OE1 GLU A   1      12.035  -7.831  19.568  0.00  0.00    +0.000 OA
ENDBRANCH  75  76
ENDBRANCH  74  75
ENDBRANCH  71  74
ENDBRANCH  69  71
ENDBRANCH  66  67
BRANCH  66  79
ATOM     79  CB  LEU A   2       6.714  -5.034  14.131  0.00  0.00    +0.000 C 
BRANCH  79  80
ATOM     80  CG  LEU A   2       5.992  -3.718  13.734  0.00  0.00    +0.000 C 
ATOM     81  CD2 LEU A   2       4.537  -4.098  13.376  0.00  0.00    +0.000 C 
ATOM     82  CD1 LEU A   2       6.558  -3.064  12.455  0.00  0.00    +0.000 C 
ENDBRANCH  79  80
ENDBRANCH  66  79
ENDBRANCH  63  66
ENDBRANCH  31  62
ENDBRANCH  30  31
ENDBRANCH  29  30
ENDBRANCH  14  25
BRANCH   1  84
ATOM     83  C   UNK A   3       9.409   0.517  10.299  0.00  0.00    +0.000 C 
ATOM     84  N   UNK A   4       9.925  -0.521  10.981  0.00  0.00    +0.000 N 
ATOM     85  H   UNK A   4       9.661  -0.642  11.979  0.00  0.00    +0.000 HD
ATOM     86  O   UNK A   3       9.668   0.730   9.099  0.00  0.00    +0.000 OA
BRANCH  83  87
ATOM     87  C   UNK A   3       8.456   1.382  11.099  0.00  0.00    +0.000 C 
BRANCH  87  90
ATOM     88  C   LEU A   2       8.539   3.805  11.160  0.00  0.00    +0.000 C 
ATOM     89  O   LEU A   2       8.444   3.862  12.397  0.00  0.00    +0.000 OA
ATOM     90  N   UNK A   3       8.311   2.720  10.459  0.00  0.00    +0.000 N 
ATOM     91  H   UNK A   3       8.030   2.793   9.460  0.00  0.00    +0.000 HD
BRANCH  88  92
ATOM     92  CA  LEU A   2       8.767   5.076  10.394  0.00  0.00    +0.000 C 
BRANCH  92  94
ATOM     93  C   GLU A   1       8.319   7.426  10.741  0.00  0.00    +0.000 C 
ATOM     94  N   LEU A   2       8.490   6.215  11.291  0.00  0.00    +0.000 N 
ATOM     95  H   LEU A   2       8.429   6.082  12.321  0.00  0.00    +0.000 HD
ATOM     96  O   GLU A   1       8.392   7.637   9.514  0.00  0.00    +0.000 OA
BRANCH  93  97
ATOM     97  CA  GLU A   1       8.011   8.596  11.675  0.00  0.00    +0.000 C 
BRANCH  97  98
ATOM     98  CB  GLU A   1       9.288   9.324  12.197  0.00  0.00    +0.000 C 
ATOM     99  CG2 GLU A   1      10.083   8.463  13.287  0.00  0.00    +0.000 C 
BRANCH  98 100
ATOM    100  CG1 GLU A   1      10.198   9.650  11.013  0.00  0.00    +0.000 C 
ATOM    101  CD1 GLU A   1      11.396  10.622  11.415  0.00  0.00    +0.000 C 
ENDBRANCH  98 100
ENDBRANCH  97  98
BRANCH  97 102
ATOM    102  N   GLU A   1       7.129   8.240  12.807  0.00  0.00    +0.000 NA
ATOM    103  H   GLU A   1       7.488   7.619  13.560  0.00  0.00    +0.000 HD
ENDBRANCH  97 102
ENDBRANCH  93  97
ENDBRANCH  92  94
BRANCH  92 104
ATOM    104  CB  LEU A   2      10.250   5.115   9.904  0.00  0.00    +0.000 C 
BRANCH 104 105
ATOM    105  CG  LEU A   2      11.312   5.166  11.092  0.00  0.00    +0.000 C 
BRANCH 105 106
ATOM    106  CD  LEU A   2      12.049   3.810  11.222  0.00  0.00    +0.000 C 
ATOM    107  OE1 LEU A   2      11.419   2.801  11.293  0.00  0.00    +0.000 OA
ATOM    108  NE2 LEU A   2      13.390   3.830  11.147  0.00  0.00    +0.000 N 
ATOM    109 HE21 LEU A   2      13.924   2.938  11.149  0.00  0.00    +0.000 HD
ATOM    110 HE22 LEU A   2      13.894   4.738  11.087  0.00  0.00    +0.000 HD
ENDBRANCH 105 106
ENDBRANCH 104 105
ENDBRANCH  92 104
ENDBRANCH  88  92
ENDBRANCH  87  90
BRANCH  87 111
ATOM    111  C   UNK A   3       7.085   0.658  11.353  0.00  0.00    +0.000 C 
BRANCH 111 112
ATOM    112  C   UNK A   3       6.371   0.187  10.123  0.00  0.00    +0.000 A 
ATOM    113  C   UNK A   3       5.223   0.894   9.688  0.00  0.00    +0.000 A 
ATOM    114  C   UNK A   3       4.512   0.408   8.562  0.00  0.00    +0.000 A 
ATOM    115  C   UNK A   3       4.919  -0.762   7.858  0.00  0.00    +0.000 A 
ATOM    116  C   UNK A   3       6.075  -1.454   8.279  0.00  0.00    +0.000 A 
ATOM    117  C   UNK A   3       6.786  -0.939   9.433  0.00  0.00    +0.000 A 
ENDBRANCH 111 112
ENDBRANCH  87 111
ENDBRANCH  83  87
ENDBRANCH   1  84
BRANCH   9 118
ATOM    118  C   UNK A   6      13.879  -8.644  12.638  0.00  0.00    +0.000 C 
ATOM    119  O   UNK A   6      12.807  -9.007  13.172  0.00  0.00    +0.000 OA
ENDBRANCH   9 118
BRANCH   5 120
ATOM    120  CB  VAL A   5      10.718  -6.174  10.617  0.00  0.00    +0.000 C 
BRANCH 120 121
ATOM    121  CG  VAL A   5       9.314  -5.869  10.271  0.00  0.00    +0.000 A 
ATOM    122  CD2 VAL A   5       8.317  -6.577  10.895  0.00  0.00    +0.000 A 
ATOM    123  CE2 VAL A   5       6.967  -6.327  10.550  0.00  0.00    +0.000 A 
ATOM    124  CZ  VAL A   5       6.678  -5.444   9.481  0.00  0.00    +0.000 A 
ATOM    125  CE1 VAL A   5       7.663  -4.812   8.807  0.00  0.00    +0.000 A 
ATOM    126  CD1 VAL A   5       9.005  -5.058   9.173  0.00  0.00    +0.000 A 
ENDBRANCH 120 121
ENDBRANCH   5 120
TORSDOF 42
REMARK  Name = ../refined-set-2016/4q87/4q87_pocket.pdb
REMARK  140 active torsions:
REMARK  status: ('A' for Active; 'I' for Inactive)
REMARK    1  A    between atoms: _1  and  _3
REMARK    2  A    between atoms: _3  and  _4
REMARK    3  A    between atoms: _3  and  _6
REMARK    4  A    between atoms: _6  and  _7
REMARK    5  A    between atoms: _17  and  _19
REMARK    6  A    between atoms: _19  and  _20
REMARK    7  A    between atoms: _19  and  _22
REMARK    8  A    between atoms: _22  and  _23
REMARK    9  A    between atoms: _28  and  _29
REMARK   10  A    between atoms: _31  and  _33
REMARK   11  A    between atoms: _33  and  _34
REMARK   12  A    between atoms: _33  and  _36
REMARK   13  A    between atoms: _36  and  _37
REMARK   14  A    between atoms: _39  and  _41
REMARK   15  A    between atoms: _41  and  _42
REMARK   16  A    between atoms: _41  and  _44
REMARK   17  A    between atoms: _44  and  _45
REMARK   18  A    between atoms: _50  and  _52
REMARK   19  A    between atoms: _52  and  _53
REMARK   20  A    between atoms: _52  and  _55
REMARK   21  A    between atoms: _55  and  _56
REMARK   22  A    between atoms: _61  and  _63
REMARK   23  A    between atoms: _63  and  _64
REMARK   24  A    between atoms: _67  and  _69
REMARK   25  A    between atoms: _69  and  _70
REMARK   26  A    between atoms: _69  and  _72
REMARK   27  A    between atoms: _72  and  _73
REMARK   28  A    between atoms: _78  and  _80
REMARK   29  A    between atoms: _80  and  _81
REMARK   30  A    between atoms: _80  and  _83
REMARK   31  A    between atoms: _83  and  _84
REMARK   32  A    between atoms: _87  and  _89
REMARK   33  A    between atoms: _89  and  _90
REMARK   34  A    between atoms: _89  and  _92
REMARK   35  A    between atoms: _92  and  _93
REMARK   36  A    between atoms: _93  and  _94
REMARK   37  A    between atoms: _99  and  _101
REMARK   38  A    between atoms: _101  and  _102
REMARK   39  A    between atoms: _101  and  _104
REMARK   40  A    between atoms: _104  and  _105
REMARK   41  A    between atoms: _111  and  _113
REMARK   42  A    between atoms: _124  and  _127
REMARK   43  A    between atoms: _127  and  _128
REMARK   44  A    between atoms: _136  and  _137
REMARK   45  A    between atoms: _145  and  _147
REMARK   46  A    between atoms: _147  and  _148
REMARK   47  A    between atoms: _147  and  _150
REMARK   48  A    between atoms: _150  and  _151
REMARK   49  A    between atoms: _151  and  _152
REMARK   50  A    between atoms: _155  and  _157
REMARK   51  A    between atoms: _157  and  _158
REMARK   52  A    between atoms: _157  and  _160
REMARK   53  A    between atoms: _160  and  _161
REMARK   54  A    between atoms: _166  and  _168
REMARK   55  A    between atoms: _168  and  _169
REMARK   56  A    between atoms: _168  and  _171
REMARK   57  A    between atoms: _171  and  _172
REMARK   58  A    between atoms: _172  and  _173
REMARK   59  A    between atoms: _176  and  _178
REMARK   60  A    between atoms: _178  and  _179
REMARK   61  A    between atoms: _178  and  _181
REMARK   62  A    between atoms: _181  and  _182
REMARK   63  A    between atoms: _185  and  _187
REMARK   64  A    between atoms: _187  and  _188
REMARK   65  A    between atoms: _187  and  _190
REMARK   66  A    between atoms: _190  and  _191
REMARK   67  A    between atoms: _192  and  ZN_393
REMARK   68  A    between atoms: _196  and  _198
REMARK   69  A    between atoms: _198  and  _199
REMARK   70  A    between atoms: _198  and  _201
REMARK   71  A    between atoms: _201  and  _202
REMARK   72  A    between atoms: _205  and  _207
REMARK   73  A    between atoms: _207  and  _208
REMARK   74  A    between atoms: _207  and  _210
REMARK   75  A    between atoms: _213  and  _215
REMARK   76  A    between atoms: _215  and  _216
REMARK   77  A    between atoms: _215  and  _218
REMARK   78  A    between atoms: _218  and  _219
REMARK   79  A    between atoms: _224  and  _226
REMARK   80  A    between atoms: _226  and  _227
REMARK   81  A    between atoms: _226  and  _229
REMARK   82  A    between atoms: _229  and  _230
REMARK   83  A    between atoms: _236  and  _238
REMARK   84  A    between atoms: _238  and  _239
REMARK   85  A    between atoms: _238  and  _241
REMARK   86  A    between atoms: _244  and  _246
REMARK   87  A    between atoms: _246  and  _247
REMARK   88  A    between atoms: _246  and  _249
REMARK   89  A    between atoms: _249  and  _250
REMARK   90  A    between atoms: _253  and  _255
REMARK   91  A    between atoms: _255  and  _256
REMARK   92  A    between atoms: _259  and  _261
REMARK   93  A    between atoms: _261  and  _262
REMARK   94  A    between atoms: _261  and  _264
REMARK   95  A    between atoms: _267  and  _269
REMARK   96  A    between atoms: _269  and  _270
REMARK   97  A    between atoms: _269  and  _272
REMARK   98  A    between atoms: _272  and  _273
REMARK   99  A    between atoms: _275  and  _277
REMARK  100  A    between atoms: _277  and  _278
REMARK  101  A    between atoms: _277  and  _280
REMARK  102  A    between atoms: _280  and  _281
REMARK  103  A    between atoms: _284  and  _286
REMARK  104  A    between atoms: _286  and  _287
REMARK  105  A    between atoms: _286  and  _289
REMARK  106  A    between atoms: _289  and  _290
REMARK  107  A    between atoms: _293  and  _295
REMARK  108  A    between atoms: _295  and  _296
REMARK  109  A    between atoms: _295  and  _298
REMARK  110  A    between atoms: _298  and  _299
REMARK  111  A    between atoms: _303  and  _304
REMARK  112  A    between atoms: _310  and  _311
REMARK  113  A    between atoms: _316  and  _318
REMARK  114  A    between atoms: _318  and  _319
REMARK  115  A    between atoms: _318  and  _321
REMARK  116  A    between atoms: _321  and  _322
REMARK  117  A    between atoms: _325  and  _327
REMARK  118  A    between atoms: _327  and  _328
REMARK  119  A    between atoms: _327  and  _330
REMARK  120  A    between atoms: _330  and  _331
REMARK  121  A    between atoms: _334  and  _336
REMARK  122  A    between atoms: _336  and  _337
REMARK  123  A    between atoms: _336  and  _339
REMARK  124  A    between atoms: _341  and  _343
REMARK  125  A    between atoms: _343  and  _344
REMARK  126  A    between atoms: _343  and  _346
REMARK  127  A    between atoms: _349  and  _351
REMARK  128  A    between atoms: _351  and  _352
REMARK  129  A    between atoms: _351  and  _354
REMARK  130  A    between atoms: _354  and  _355
REMARK  131  A    between atoms: _365  and  _367
REMARK  132  A    between atoms: _367  and  _368
REMARK  133  A    between atoms: _367  and  _370
REMARK  134  A    between atoms: _370  and  _371
REMARK  135  A    between atoms: _376  and  _378
REMARK  136  A    between atoms: _378  and  _379
REMARK  137  A    between atoms: _378  and  _381
REMARK  138  A    between atoms: _381  and  _382
REMARK  139  A    between atoms: _382  and  _383
REMARK  140  A    between atoms: _383  and  _384
REMARK                            x       y       z     vdW  Elec       q    Type
REMARK                         _______ _______ _______ _____ _____    ______ ____
ROOT
ATOM      1  C   GLU A   1      15.172  -8.572  21.173  0.00  0.00    +0.238 C 
ATOM      2  O   GLU A   1      15.934  -9.162  21.951  0.00  0.00    -0.274 OA
ATOM      3  N   HIS A   2      13.969  -8.127  21.574  0.00  0.00    -0.298 N 
ATOM      4  H   HIS A   2      13.385  -7.530  20.954  0.00  0.00    +0.150 HD
ENDROOT
BRANCH   1   5
ATOM      5  CA  GLU A   1      15.507  -8.462  19.697  0.00  0.00    +0.145 C 
BRANCH   5   6
ATOM      6  N   GLU A   1      14.483  -9.147  18.873  0.00  0.00    -0.238 NA
ATOM      7  H   GLU A   1      13.619  -8.630  18.612  0.00  0.00    +0.142 HD
ENDBRANCH   5   6
BRANCH   5   8
ATOM      8  CB  GLU A   1      15.521  -7.004  19.267  0.00  0.00    +0.038 C 
BRANCH   8   9
ATOM      9  CG  GLU A   1      16.146  -6.951  17.831  0.00  0.00    +0.116 C 
BRANCH   9  10
ATOM     10  CD  GLU A   1      16.712  -5.617  17.498  0.00  0.00    +0.365 C 
ATOM     11  OE2 GLU A   1      16.039  -4.613  17.683  0.00  0.00    -0.246 OA
ATOM     12  OE1 GLU A   1      17.863  -5.593  17.064  0.00  0.00    -0.246 OA
ENDBRANCH   9  10
ENDBRANCH   8   9
ENDBRANCH   5   8
ENDBRANCH   1   5
BRANCH   3  13
ATOM     13  CA  HIS A   2      13.506  -8.508  22.909  0.00  0.00    +0.143 C 
BRANCH  13  14
ATOM     14  C   HIS A   2      13.158  -9.967  22.939  0.00  0.00    +0.227 C 
ATOM     15  O   HIS A   2      12.831 -10.538  21.930  0.00  0.00    -0.286 OA
ENDBRANCH  13  14
BRANCH  13  16
ATOM     16  CB  HIS A   2      12.287  -7.658  23.262  0.00  0.00    +0.075 C 
BRANCH  16  17
ATOM     17  CG  HIS A   2      12.646  -6.196  23.411  0.00  0.00    +0.082 A 
ATOM     18  CD2 HIS A   2      13.120  -5.488  24.473  0.00  0.00    +0.115 A 
ATOM     19  NE2 HIS A   2      13.361  -4.195  24.035  0.00  0.00    -0.221 NA
ATOM     20  CE1 HIS A   2      13.040  -4.110  22.763  0.00  0.00    +0.199 A 
ATOM     21  ND1 HIS A   2      12.588  -5.309  22.366  0.00  0.00    -0.227 NA
ENDBRANCH  16  17
ENDBRANCH  13  16
ENDBRANCH   3  13
TORSDOF 9
REMARK  Name = ../refined-set-2016/4q87/4q87_pocket.pdb
REMARK  140 active torsions:
REMARK  status: ('A' for Active; 'I' for Inactive)
REMARK    1  A    between atoms: _1  and  _3
REMARK    2  A    between atoms: _3  and  _4
REMARK    3  A    between atoms: _3  and  _6
REMARK    4  A    between atoms: _6  and  _7
REMARK    5  A    between atoms: _17  and  _19
REMARK    6  A    between atoms: _19  and  _20
REMARK    7  A    between atoms: _19  and  _22
REMARK    8  A    between atoms: _22  and  _23
REMARK    9  A    between atoms: _28  and  _29
REMARK   10  A    between atoms: _31  and  _33
REMARK   11  A    between atoms: _33  and  _34
REMARK   12  A    between atoms: _33  and  _36
REMARK   13  A    between atoms: _36  and  _37
REMARK   14  A    between atoms: _39  and  _41
REMARK   15  A    between atoms: _41  and  _42
REMARK   16  A    between atoms: _41  and  _44
REMARK   17  A    between atoms: _44  and  _45
REMARK   18  A    between atoms: _50  and  _52
REMARK   19  A    between atoms: _52  and  _53
REMARK   20  A    between atoms: _52  and  _55
REMARK   21  A    between atoms: _55  and  _56
REMARK   22  A    between atoms: _61  and  _63
REMARK   23  A    between atoms: _63  and  _64
REMARK   24  A    between atoms: _67  and  _69
REMARK   25  A    between atoms: _69  and  _70
REMARK   26  A    between atoms: _69  and  _72
REMARK   27  A    between atoms: _72  and  _73
REMARK   28  A    between atoms: _78  and  _80
REMARK   29  A    between atoms: _80  and  _81
REMARK   30  A    between atoms: _80  and  _83
REMARK   31  A    between atoms: _83  and  _84
REMARK   32  A    between atoms: _87  and  _89
REMARK   33  A    between atoms: _89  and  _90
REMARK   34  A    between atoms: _89  and  _92
REMARK   35  A    between atoms: _92  and  _93
REMARK   36  A    between atoms: _93  and  _94
REMARK   37  A    between atoms: _99  and  _101
REMARK   38  A    between atoms: _101  and  _102
REMARK   39  A    between atoms: _101  and  _104
REMARK   40  A    between atoms: _104  and  _105
REMARK   41  A    between atoms: _111  and  _113
REMARK   42  A    between atoms: _124  and  _127
REMARK   43  A    between atoms: _127  and  _128
REMARK   44  A    between atoms: _136  and  _137
REMARK   45  A    between atoms: _145  and  _147
REMARK   46  A    between atoms: _147  and  _148
REMARK   47  A    between atoms: _147  and  _150
REMARK   48  A    between atoms: _150  and  _151
REMARK   49  A    between atoms: _151  and  _152
REMARK   50  A    between atoms: _155  and  _157
REMARK   51  A    between atoms: _157  and  _158
REMARK   52  A    between atoms: _157  and  _160
REMARK   53  A    between atoms: _160  and  _161
REMARK   54  A    between atoms: _166  and  _168
REMARK   55  A    between atoms: _168  and  _169
REMARK   56  A    between atoms: _168  and  _171
REMARK   57  A    between atoms: _171  and  _172
REMARK   58  A    between atoms: _172  and  _173
REMARK   59  A    between atoms: _176  and  _178
REMARK   60  A    between atoms: _178  and  _179
REMARK   61  A    between atoms: _178  and  _181
REMARK   62  A    between atoms: _181  and  _182
REMARK   63  A    between atoms: _185  and  _187
REMARK   64  A    between atoms: _187  and  _188
REMARK   65  A    between atoms: _187  and  _190
REMARK   66  A    between atoms: _190  and  _191
REMARK   67  A    between atoms: _192  and  ZN_393
REMARK   68  A    between atoms: _196  and  _198
REMARK   69  A    between atoms: _198  and  _199
REMARK   70  A    between atoms: _198  and  _201
REMARK   71  A    between atoms: _201  and  _202
REMARK   72  A    between atoms: _205  and  _207
REMARK   73  A    between atoms: _207  and  _208
REMARK   74  A    between atoms: _207  and  _210
REMARK   75  A    between atoms: _213  and  _215
REMARK   76  A    between atoms: _215  and  _216
REMARK   77  A    between atoms: _215  and  _218
REMARK   78  A    between atoms: _218  and  _219
REMARK   79  A    between atoms: _224  and  _226
REMARK   80  A    between atoms: _226  and  _227
REMARK   81  A    between atoms: _226  and  _229
REMARK   82  A    between atoms: _229  and  _230
REMARK   83  A    between atoms: _236  and  _238
REMARK   84  A    between atoms: _238  and  _239
REMARK   85  A    between atoms: _238  and  _241
REMARK   86  A    between atoms: _244  and  _246
REMARK   87  A    between atoms: _246  and  _247
REMARK   88  A    between atoms: _246  and  _249
REMARK   89  A    between atoms: _249  and  _250
REMARK   90  A    between atoms: _253  and  _255
REMARK   91  A    between atoms: _255  and  _256
REMARK   92  A    between atoms: _259  and  _261
REMARK   93  A    between atoms: _261  and  _262
REMARK   94  A    between atoms: _261  and  _264
REMARK   95  A    between atoms: _267  and  _269
REMARK   96  A    between atoms: _269  and  _270
REMARK   97  A    between atoms: _269  and  _272
REMARK   98  A    between atoms: _272  and  _273
REMARK   99  A    between atoms: _275  and  _277
REMARK  100  A    between atoms: _277  and  _278
REMARK  101  A    between atoms: _277  and  _280
REMARK  102  A    between atoms: _280  and  _281
REMARK  103  A    between atoms: _284  and  _286
REMARK  104  A    between atoms: _286  and  _287
REMARK  105  A    between atoms: _286  and  _289
REMARK  106  A    between atoms: _289  and  _290
REMARK  107  A    between atoms: _293  and  _295
REMARK  108  A    between atoms: _295  and  _296
REMARK  109  A    between atoms: _295  and  _298
REMARK  110  A    between atoms: _298  and  _299
REMARK  111  A    between atoms: _303  and  _304
REMARK  112  A    between atoms: _310  and  _311
REMARK  113  A    between atoms: _316  and  _318
REMARK  114  A    between atoms: _318  and  _319
REMARK  115  A    between atoms: _318  and  _321
REMARK  116  A    between atoms: _321  and  _322
REMARK  117  A    between atoms: _325  and  _327
REMARK  118  A    between atoms: _327  and  _328
REMARK  119  A    between atoms: _327  and  _330
REMARK  120  A    between atoms: _330  and  _331
REMARK  121  A    between atoms: _334  and  _336
REMARK  122  A    between atoms: _336  and  _337
REMARK  123  A    between atoms: _336  and  _339
REMARK  124  A    between atoms: _341  and  _343
REMARK  125  A    between atoms: _343  and  _344
REMARK  126  A    between atoms: _343  and  _346
REMARK  127  A    between atoms: _349  and  _351
REMARK  128  A    between atoms: _351  and  _352
REMARK  129  A    between atoms: _351  and  _354
REMARK  130  A    between atoms: _354  and  _355
REMARK  131  A    between atoms: _365  and  _367
REMARK  132  A    between atoms: _367  and  _368
REMARK  133  A    between atoms: _367  and  _370
REMARK  134  A    between atoms: _370  and  _371
REMARK  135  A    between atoms: _376  and  _378
REMARK  136  A    between atoms: _378  and  _379
REMARK  137  A    between atoms: _378  and  _381
REMARK  138  A    between atoms: _381  and  _382
REMARK  139  A    between atoms: _382  and  _383
REMARK  140  A    between atoms: _383  and  _384
REMARK                            x       y       z     vdW  Elec       q    Type
REMARK                         _______ _______ _______ _____ _____    ______ ____
ROOT
ATOM      1  CB  PHE A   1      13.121  12.794  14.001  0.00  0.00    +0.051 C 
ENDROOT
BRANCH   1   2
ATOM      2  CG  PHE A   1      13.886  11.522  14.229  0.00  0.00    -0.020 A 
ATOM      3  CD2 PHE A   1      13.239  10.455  14.852  0.00  0.00    -0.004 A 
ATOM      4  CE2 PHE A   1      13.909   9.310  15.091  0.00  0.00    -0.000 A 
ATOM      5  CZ  PHE A   1      15.240   9.169  14.728  0.00  0.00    -0.000 A 
ATOM      6  CE1 PHE A   1      15.940  10.223  14.143  0.00  0.00    -0.000 A 
ATOM      7  CD1 PHE A   1      15.223  11.427  13.902  0.00  0.00    -0.004 A 
ENDBRANCH   1   2
BRANCH   1   8
ATOM      8  CA  PHE A   1      13.230  13.830  15.177  0.00  0.00    +0.137 C 
BRANCH   8   9
ATOM      9  N   PHE A   1      12.540  15.044  14.764  0.00  0.00    -0.239 NA
ATOM     10  H   PHE A   1      12.197  15.123  13.785  0.00  0.00    +0.142 HD
ENDBRANCH   8   9
BRANCH   8  11
ATOM     11  C   PHE A   1      14.654  14.092  15.530  0.00  0.00    +0.224 C 
ATOM     12  O   PHE A   1      15.181  13.512  16.514  0.00  0.00    -0.287 OA
ENDBRANCH   8  11
ENDBRANCH   1   8
TORSDOF 4
REMARK  Name = ../refined-set-2016/4q87/4q87_pocket.pdb
REMARK  140 active torsions:
REMARK  status: ('A' for Active; 'I' for Inactive)
REMARK    1  A    between atoms: _1  and  _3
REMARK    2  A    between atoms: _3  and  _4
REMARK    3  A    between atoms: _3  and  _6
REMARK    4  A    between atoms: _6  and  _7
REMARK    5  A    between atoms: _17  and  _19
REMARK    6  A    between atoms: _19  and  _20
REMARK    7  A    between atoms: _19  and  _22
REMARK    8  A    between atoms: _22  and  _23
REMARK    9  A    between atoms: _28  and  _29
REMARK   10  A    between atoms: _31  and  _33
REMARK   11  A    between atoms: _33  and  _34
REMARK   12  A    between atoms: _33  and  _36
REMARK   13  A    between atoms: _36  and  _37
REMARK   14  A    between atoms: _39  and  _41
REMARK   15  A    between atoms: _41  and  _42
REMARK   16  A    between atoms: _41  and  _44
REMARK   17  A    between atoms: _44  and  _45
REMARK   18  A    between atoms: _50  and  _52
REMARK   19  A    between atoms: _52  and  _53
REMARK   20  A    between atoms: _52  and  _55
REMARK   21  A    between atoms: _55  and  _56
REMARK   22  A    between atoms: _61  and  _63
REMARK   23  A    between atoms: _63  and  _64
REMARK   24  A    between atoms: _67  and  _69
REMARK   25  A    between atoms: _69  and  _70
REMARK   26  A    between atoms: _69  and  _72
REMARK   27  A    between atoms: _72  and  _73
REMARK   28  A    between atoms: _78  and  _80
REMARK   29  A    between atoms: _80  and  _81
REMARK   30  A    between atoms: _80  and  _83
REMARK   31  A    between atoms: _83  and  _84
REMARK   32  A    between atoms: _87  and  _89
REMARK   33  A    between atoms: _89  and  _90
REMARK   34  A    between atoms: _89  and  _92
REMARK   35  A    between atoms: _92  and  _93
REMARK   36  A    between atoms: _93  and  _94
REMARK   37  A    between atoms: _99  and  _101
REMARK   38  A    between atoms: _101  and  _102
REMARK   39  A    between atoms: _101  and  _104
REMARK   40  A    between atoms: _104  and  _105
REMARK   41  A    between atoms: _111  and  _113
REMARK   42  A    between atoms: _124  and  _127
REMARK   43  A    between atoms: _127  and  _128
REMARK   44  A    between atoms: _136  and  _137
REMARK   45  A    between atoms: _145  and  _147
REMARK   46  A    between atoms: _147  and  _148
REMARK   47  A    between atoms: _147  and  _150
REMARK   48  A    between atoms: _150  and  _151
REMARK   49  A    between atoms: _151  and  _152
REMARK   50  A    between atoms: _155  and  _157
REMARK   51  A    between atoms: _157  and  _158
REMARK   52  A    between atoms: _157  and  _160
REMARK   53  A    between atoms: _160  and  _161
REMARK   54  A    between atoms: _166  and  _168
REMARK   55  A    between atoms: _168  and  _169
REMARK   56  A    between atoms: _168  and  _171
REMARK   57  A    between atoms: _171  and  _172
REMARK   58  A    between atoms: _172  and  _173
REMARK   59  A    between atoms: _176  and  _178
REMARK   60  A    between atoms: _178  and  _179
REMARK   61  A    between atoms: _178  and  _181
REMARK   62  A    between atoms: _181  and  _182
REMARK   63  A    between atoms: _185  and  _187
REMARK   64  A    between atoms: _187  and  _188
REMARK   65  A    between atoms: _187  and  _190
REMARK   66  A    between atoms: _190  and  _191
REMARK   67  A    between atoms: _192  and  ZN_393
REMARK   68  A    between atoms: _196  and  _198
REMARK   69  A    between atoms: _198  and  _199
REMARK   70  A    between atoms: _198  and  _201
REMARK   71  A    between atoms: _201  and  _202
REMARK   72  A    between atoms: _205  and  _207
REMARK   73  A    between atoms: _207  and  _208
REMARK   74  A    between atoms: _207  and  _210
REMARK   75  A    between atoms: _213  and  _215
REMARK   76  A    between atoms: _215  and  _216
REMARK   77  A    between atoms: _215  and  _218
REMARK   78  A    between atoms: _218  and  _219
REMARK   79  A    between atoms: _224  and  _226
REMARK   80  A    between atoms: _226  and  _227
REMARK   81  A    between atoms: _226  and  _229
REMARK   82  A    between atoms: _229  and  _230
REMARK   83  A    between atoms: _236  and  _238
REMARK   84  A    between atoms: _238  and  _239
REMARK   85  A    between atoms: _238  and  _241
REMARK   86  A    between atoms: _244  and  _246
REMARK   87  A    between atoms: _246  and  _247
REMARK   88  A    between atoms: _246  and  _249
REMARK   89  A    between atoms: _249  and  _250
REMARK   90  A    between atoms: _253  and  _255
REMARK   91  A    between atoms: _255  and  _256
REMARK   92  A    between atoms: _259  and  _261
REMARK   93  A    between atoms: _261  and  _262
REMARK   94  A    between atoms: _261  and  _264
REMARK   95  A    between atoms: _267  and  _269
REMARK   96  A    between atoms: _269  and  _270
REMARK   97  A    between atoms: _269  and  _272
REMARK   98  A    between atoms: _272  and  _273
REMARK   99  A    between atoms: _275  and  _277
REMARK  100  A    between atoms: _277  and  _278
REMARK  101  A    between atoms: _277  and  _280
REMARK  102  A    between atoms: _280  and  _281
REMARK  103  A    between atoms: _284  and  _286
REMARK  104  A    between atoms: _286  and  _287
REMARK  105  A    between atoms: _286  and  _289
REMARK  106  A    between atoms: _289  and  _290
REMARK  107  A    between atoms: _293  and  _295
REMARK  108  A    between atoms: _295  and  _296
REMARK  109  A    between atoms: _295  and  _298
REMARK  110  A    between atoms: _298  and  _299
REMARK  111  A    between atoms: _303  and  _304
REMARK  112  A    between atoms: _310  and  _311
REMARK  113  A    between atoms: _316  and  _318
REMARK  114  A    between atoms: _318  and  _319
REMARK  115  A    between atoms: _318  and  _321
REMARK  116  A    between atoms: _321  and  _322
REMARK  117  A    between atoms: _325  and  _327
REMARK  118  A    between atoms: _327  and  _328
REMARK  119  A    between atoms: _327  and  _330
REMARK  120  A    between atoms: _330  and  _331
REMARK  121  A    between atoms: _334  and  _336
REMARK  122  A    between atoms: _336  and  _337
REMARK  123  A    between atoms: _336  and  _339
REMARK  124  A    between atoms: _341  and  _343
REMARK  125  A    between atoms: _343  and  _344
REMARK  126  A    between atoms: _343  and  _346
REMARK  127  A    between atoms: _349  and  _351
REMARK  128  A    between atoms: _351  and  _352
REMARK  129  A    between atoms: _351  and  _354
REMARK  130  A    between atoms: _354  and  _355
REMARK  131  A    between atoms: _365  and  _367
REMARK  132  A    between atoms: _367  and  _368
REMARK  133  A    between atoms: _367  and  _370
REMARK  134  A    between atoms: _370  and  _371
REMARK  135  A    between atoms: _376  and  _378
REMARK  136  A    between atoms: _378  and  _379
REMARK  137  A    between atoms: _378  and  _381
REMARK  138  A    between atoms: _381  and  _382
REMARK  139  A    between atoms: _382  and  _383
REMARK  140  A    between atoms: _383  and  _384
REMARK                            x       y       z     vdW  Elec       q    Type
REMARK                         _______ _______ _______ _____ _____    ______ ____
ROOT
ATOM      1  CA  VAL A   1      17.296  11.998  19.671  0.00  0.00    +0.133 C 
ENDROOT
BRANCH   1   2
ATOM      2  CB  VAL A   1      17.779  11.177  18.433  0.00  0.00    +0.023 C 
ATOM      3  CG2 VAL A   1      16.560  10.525  17.788  0.00  0.00    +0.002 C 
ATOM      4  CG1 VAL A   1      18.499  12.041  17.444  0.00  0.00    +0.002 C 
ENDBRANCH   1   2
BRANCH   1   5
ATOM      5  N   VAL A   1      16.215  13.041  19.300  0.00  0.00    -0.239 NA
ATOM      6  H   VAL A   1      16.130  13.406  18.330  0.00  0.00    +0.142 HD
ENDBRANCH   1   5
BRANCH   1   7
ATOM      7  C   VAL A   1      18.483  12.604  20.418  0.00  0.00    +0.224 C 
ATOM      8  O   VAL A   1      19.383  11.827  20.776  0.00  0.00    -0.287 OA
ENDBRANCH   1   7
TORSDOF 3
REMARK  Name = ../refined-set-2016/4q87/4q87_pocket.pdb
REMARK  140 active torsions:
REMARK  status: ('A' for Active; 'I' for Inactive)
REMARK    1  A    between atoms: _1  and  _3
REMARK    2  A    between atoms: _3  and  _4
REMARK    3  A    between atoms: _3  and  _6
REMARK    4  A    between atoms: _6  and  _7
REMARK    5  A    between atoms: _17  and  _19
REMARK    6  A    between atoms: _19  and  _20
REMARK    7  A    between atoms: _19  and  _22
REMARK    8  A    between atoms: _22  and  _23
REMARK    9  A    between atoms: _28  and  _29
REMARK   10  A    between atoms: _31  and  _33
REMARK   11  A    between atoms: _33  and  _34
REMARK   12  A    between atoms: _33  and  _36
REMARK   13  A    between atoms: _36  and  _37
REMARK   14  A    between atoms: _39  and  _41
REMARK   15  A    between atoms: _41  and  _42
REMARK   16  A    between atoms: _41  and  _44
REMARK   17  A    between atoms: _44  and  _45
REMARK   18  A    between atoms: _50  and  _52
REMARK   19  A    between atoms: _52  and  _53
REMARK   20  A    between atoms: _52  and  _55
REMARK   21  A    between atoms: _55  and  _56
REMARK   22  A    between atoms: _61  and  _63
REMARK   23  A    between atoms: _63  and  _64
REMARK   24  A    between atoms: _67  and  _69
REMARK   25  A    between atoms: _69  and  _70
REMARK   26  A    between atoms: _69  and  _72
REMARK   27  A    between atoms: _72  and  _73
REMARK   28  A    between atoms: _78  and  _80
REMARK   29  A    between atoms: _80  and  _81
REMARK   30  A    between atoms: _80  and  _83
REMARK   31  A    between atoms: _83  and  _84
REMARK   32  A    between atoms: _87  and  _89
REMARK   33  A    between atoms: _89  and  _90
REMARK   34  A    between atoms: _89  and  _92
REMARK   35  A    between atoms: _92  and  _93
REMARK   36  A    between atoms: _93  and  _94
REMARK   37  A    between atoms: _99  and  _101
REMARK   38  A    between atoms: _101  and  _102
REMARK   39  A    between atoms: _101  and  _104
REMARK   40  A    between atoms: _104  and  _105
REMARK   41  A    between atoms: _111  and  _113
REMARK   42  A    between atoms: _124  and  _127
REMARK   43  A    between atoms: _127  and  _128
REMARK   44  A    between atoms: _136  and  _137
REMARK   45  A    between atoms: _145  and  _147
REMARK   46  A    between atoms: _147  and  _148
REMARK   47  A    between atoms: _147  and  _150
REMARK   48  A    between atoms: _150  and  _151
REMARK   49  A    between atoms: _151  and  _152
REMARK   50  A    between atoms: _155  and  _157
REMARK   51  A    between atoms: _157  and  _158
REMARK   52  A    between atoms: _157  and  _160
REMARK   53  A    between atoms: _160  and  _161
REMARK   54  A    between atoms: _166  and  _168
REMARK   55  A    between atoms: _168  and  _169
REMARK   56  A    between atoms: _168  and  _171
REMARK   57  A    between atoms: _171  and  _172
REMARK   58  A    between atoms: _172  and  _173
REMARK   59  A    between atoms: _176  and  _178
REMARK   60  A    between atoms: _178  and  _179
REMARK   61  A    between atoms: _178  and  _181
REMARK   62  A    between atoms: _181  and  _182
REMARK   63  A    between atoms: _185  and  _187
REMARK   64  A    between atoms: _187  and  _188
REMARK   65  A    between atoms: _187  and  _190
REMARK   66  A    between atoms: _190  and  _191
REMARK   67  A    between atoms: _192  and  ZN_393
REMARK   68  A    between atoms: _196  and  _198
REMARK   69  A    between atoms: _198  and  _199
REMARK   70  A    between atoms: _198  and  _201
REMARK   71  A    between atoms: _201  and  _202
REMARK   72  A    between atoms: _205  and  _207
REMARK   73  A    between atoms: _207  and  _208
REMARK   74  A    between atoms: _207  and  _210
REMARK   75  A    between atoms: _213  and  _215
REMARK   76  A    between atoms: _215  and  _216
REMARK   77  A    between atoms: _215  and  _218
REMARK   78  A    between atoms: _218  and  _219
REMARK   79  A    between atoms: _224  and  _226
REMARK   80  A    between atoms: _226  and  _227
REMARK   81  A    between atoms: _226  and  _229
REMARK   82  A    between atoms: _229  and  _230
REMARK   83  A    between atoms: _236  and  _238
REMARK   84  A    between atoms: _238  and  _239
REMARK   85  A    between atoms: _238  and  _241
REMARK   86  A    between atoms: _244  and  _246
REMARK   87  A    between atoms: _246  and  _247
REMARK   88  A    between atoms: _246  and  _249
REMARK   89  A    between atoms: _249  and  _250
REMARK   90  A    between atoms: _253  and  _255
REMARK   91  A    between atoms: _255  and  _256
REMARK   92  A    between atoms: _259  and  _261
REMARK   93  A    between atoms: _261  and  _262
REMARK   94  A    between atoms: _261  and  _264
REMARK   95  A    between atoms: _267  and  _269
REMARK   96  A    between atoms: _269  and  _270
REMARK   97  A    between atoms: _269  and  _272
REMARK   98  A    between atoms: _272  and  _273
REMARK   99  A    between atoms: _275  and  _277
REMARK  100  A    between atoms: _277  and  _278
REMARK  101  A    between atoms: _277  and  _280
REMARK  102  A    between atoms: _280  and  _281
REMARK  103  A    between atoms: _284  and  _286
REMARK  104  A    between atoms: _286  and  _287
REMARK  105  A    between atoms: _286  and  _289
REMARK  106  A    between atoms: _289  and  _290
REMARK  107  A    between atoms: _293  and  _295
REMARK  108  A    between atoms: _295  and  _296
REMARK  109  A    between atoms: _295  and  _298
REMARK  110  A    between atoms: _298  and  _299
REMARK  111  A    between atoms: _303  and  _304
REMARK  112  A    between atoms: _310  and  _311
REMARK  113  A    between atoms: _316  and  _318
REMARK  114  A    between atoms: _318  and  _319
REMARK  115  A    between atoms: _318  and  _321
REMARK  116  A    between atoms: _321  and  _322
REMARK  117  A    between atoms: _325  and  _327
REMARK  118  A    between atoms: _327  and  _328
REMARK  119  A    between atoms: _327  and  _330
REMARK  120  A    between atoms: _330  and  _331
REMARK  121  A    between atoms: _334  and  _336
REMARK  122  A    between atoms: _336  and  _337
REMARK  123  A    between atoms: _336  and  _339
REMARK  124  A    between atoms: _341  and  _343
REMARK  125  A    between atoms: _343  and  _344
REMARK  126  A    between atoms: _343  and  _346
REMARK  127  A    between atoms: _349  and  _351
REMARK  128  A    between atoms: _351  and  _352
REMARK  129  A    between atoms: _351  and  _354
REMARK  130  A    between atoms: _354  and  _355
REMARK  131  A    between atoms: _365  and  _367
REMARK  132  A    between atoms: _367  and  _368
REMARK  133  A    between atoms: _367  and  _370
REMARK  134  A    between atoms: _370  and  _371
REMARK  135  A    between atoms: _376  and  _378
REMARK  136  A    between atoms: _378  and  _379
REMARK  137  A    between atoms: _378  and  _381
REMARK  138  A    between atoms: _381  and  _382
REMARK  139  A    between atoms: _382  and  _383
REMARK  140  A    between atoms: _383  and  _384
REMARK                            x       y       z     vdW  Elec       q    Type
REMARK                         _______ _______ _______ _____ _____    ______ ____
ROOT
ATOM      1  CA  ALA A   2       8.856   5.946  21.993  0.00  0.00    +0.149 C 
ATOM      2  CB  ALA A   2       7.472   6.375  22.382  0.00  0.00    +0.031 C 
ENDROOT
BRANCH   1   5
ATOM      3  C   LEU A   1      10.624   7.609  22.127  0.00  0.00    +0.238 C 
ATOM      4  O   LEU A   1      10.885   7.348  23.319  0.00  0.00    -0.274 OA
ATOM      5  N   ALA A   2       9.609   7.076  21.448  0.00  0.00    -0.297 N 
ATOM      6  H   ALA A   2       9.349   7.468  20.520  0.00  0.00    +0.150 HD
BRANCH   3   7
ATOM      7  CA  LEU A   1      11.515   8.546  21.316  0.00  0.00    +0.145 C 
BRANCH   7   8
ATOM      8  N   LEU A   1      12.192   9.550  22.202  0.00  0.00    -0.238 NA
ATOM      9  H   LEU A   1      12.736   9.233  23.029  0.00  0.00    +0.142 HD
ENDBRANCH   7   8
BRANCH   7  10
ATOM     10  CB  LEU A   1      12.589   7.684  20.586  0.00  0.00    +0.026 C 
BRANCH  10  11
ATOM     11  CG  LEU A   1      13.535   8.468  19.683  0.00  0.00    +0.002 C 
ATOM     12  CD2 LEU A   1      14.449   7.488  19.031  0.00  0.00    +0.000 C 
ATOM     13  CD1 LEU A   1      12.791   9.291  18.543  0.00  0.00    +0.000 C 
ENDBRANCH  10  11
ENDBRANCH   7  10
ENDBRANCH   3   7
ENDBRANCH   1   5
BRANCH   1  14
ATOM     14  C   ALA A   2       8.809   4.927  20.832  0.00  0.00    +0.241 C 
ATOM     15  N   VAL A   3       9.266   3.673  21.121  0.00  0.00    -0.298 N 
ATOM     16  H   VAL A   3       9.676   3.467  22.054  0.00  0.00    +0.150 HD
ATOM     17  O   ALA A   2       8.461   5.268  19.697  0.00  0.00    -0.273 OA
BRANCH  15  18
ATOM     18  CA  VAL A   3       9.175   2.638  20.123  0.00  0.00    +0.137 C 
BRANCH  18  19
ATOM     19  CB  VAL A   3      10.515   2.011  19.846  0.00  0.00    +0.026 C 
ATOM     20  CG2 VAL A   3      11.491   3.123  19.352  0.00  0.00    +0.002 C 
ATOM     21  CG1 VAL A   3      10.331   0.947  18.670  0.00  0.00    +0.002 C 
ENDBRANCH  18  19
BRANCH  18  22
ATOM     22  C   VAL A   3       8.205   1.579  20.597  0.00  0.00    +0.227 C 
ATOM     23  O   VAL A   3       8.344   1.047  21.717  0.00  0.00    -0.286 OA
ENDBRANCH  18  22
ENDBRANCH  15  18
ENDBRANCH   1  14
TORSDOF 9
REMARK  Name = ../refined-set-2016/4q87/4q87_pocket.pdb
REMARK  140 active torsions:
REMARK  status: ('A' for Active; 'I' for Inactive)
REMARK    1  A    between atoms: _1  and  _3
REMARK    2  A    between atoms: _3  and  _4
REMARK    3  A    between atoms: _3  and  _6
REMARK    4  A    between atoms: _6  and  _7
REMARK    5  A    between atoms: _17  and  _19
REMARK    6  A    between atoms: _19  and  _20
REMARK    7  A    between atoms: _19  and  _22
REMARK    8  A    between atoms: _22  and  _23
REMARK    9  A    between atoms: _28  and  _29
REMARK   10  A    between atoms: _31  and  _33
REMARK   11  A    between atoms: _33  and  _34
REMARK   12  A    between atoms: _33  and  _36
REMARK   13  A    between atoms: _36  and  _37
REMARK   14  A    between atoms: _39  and  _41
REMARK   15  A    between atoms: _41  and  _42
REMARK   16  A    between atoms: _41  and  _44
REMARK   17  A    between atoms: _44  and  _45
REMARK   18  A    between atoms: _50  and  _52
REMARK   19  A    between atoms: _52  and  _53
REMARK   20  A    between atoms: _52  and  _55
REMARK   21  A    between atoms: _55  and  _56
REMARK   22  A    between atoms: _61  and  _63
REMARK   23  A    between atoms: _63  and  _64
REMARK   24  A    between atoms: _67  and  _69
REMARK   25  A    between atoms: _69  and  _70
REMARK   26  A    between atoms: _69  and  _72
REMARK   27  A    between atoms: _72  and  _73
REMARK   28  A    between atoms: _78  and  _80
REMARK   29  A    between atoms: _80  and  _81
REMARK   30  A    between atoms: _80  and  _83
REMARK   31  A    between atoms: _83  and  _84
REMARK   32  A    between atoms: _87  and  _89
REMARK   33  A    between atoms: _89  and  _90
REMARK   34  A    between atoms: _89  and  _92
REMARK   35  A    between atoms: _92  and  _93
REMARK   36  A    between atoms: _93  and  _94
REMARK   37  A    between atoms: _99  and  _101
REMARK   38  A    between atoms: _101  and  _102
REMARK   39  A    between atoms: _101  and  _104
REMARK   40  A    between atoms: _104  and  _105
REMARK   41  A    between atoms: _111  and  _113
REMARK   42  A    between atoms: _124  and  _127
REMARK   43  A    between atoms: _127  and  _128
REMARK   44  A    between atoms: _136  and  _137
REMARK   45  A    between atoms: _145  and  _147
REMARK   46  A    between atoms: _147  and  _148
REMARK   47  A    between atoms: _147  and  _150
REMARK   48  A    between atoms: _150  and  _151
REMARK   49  A    between atoms: _151  and  _152
REMARK   50  A    between atoms: _155  and  _157
REMARK   51  A    between atoms: _157  and  _158
REMARK   52  A    between atoms: _157  and  _160
REMARK   53  A    between atoms: _160  and  _161
REMARK   54  A    between atoms: _166  and  _168
REMARK   55  A    between atoms: _168  and  _169
REMARK   56  A    between atoms: _168  and  _171
REMARK   57  A    between atoms: _171  and  _172
REMARK   58  A    between atoms: _172  and  _173
REMARK   59  A    between atoms: _176  and  _178
REMARK   60  A    between atoms: _178  and  _179
REMARK   61  A    between atoms: _178  and  _181
REMARK   62  A    between atoms: _181  and  _182
REMARK   63  A    between atoms: _185  and  _187
REMARK   64  A    between atoms: _187  and  _188
REMARK   65  A    between atoms: _187  and  _190
REMARK   66  A    between atoms: _190  and  _191
REMARK   67  A    between atoms: _192  and  ZN_393
REMARK   68  A    between atoms: _196  and  _198
REMARK   69  A    between atoms: _198  and  _199
REMARK   70  A    between atoms: _198  and  _201
REMARK   71  A    between atoms: _201  and  _202
REMARK   72  A    between atoms: _205  and  _207
REMARK   73  A    between atoms: _207  and  _208
REMARK   74  A    between atoms: _207  and  _210
REMARK   75  A    between atoms: _213  and  _215
REMARK   76  A    between atoms: _215  and  _216
REMARK   77  A    between atoms: _215  and  _218
REMARK   78  A    between atoms: _218  and  _219
REMARK   79  A    between atoms: _224  and  _226
REMARK   80  A    between atoms: _226  and  _227
REMARK   81  A    between atoms: _226  and  _229
REMARK   82  A    between atoms: _229  and  _230
REMARK   83  A    between atoms: _236  and  _238
REMARK   84  A    between atoms: _238  and  _239
REMARK   85  A    between atoms: _238  and  _241
REMARK   86  A    between atoms: _244  and  _246
REMARK   87  A    between atoms: _246  and  _247
REMARK   88  A    between atoms: _246  and  _249
REMARK   89  A    between atoms: _249  and  _250
REMARK   90  A    between atoms: _253  and  _255
REMARK   91  A    between atoms: _255  and  _256
REMARK   92  A    between atoms: _259  and  _261
REMARK   93  A    between atoms: _261  and  _262
REMARK   94  A    between atoms: _261  and  _264
REMARK   95  A    between atoms: _267  and  _269
REMARK   96  A    between atoms: _269  and  _270
REMARK   97  A    between atoms: _269  and  _272
REMARK   98  A    between atoms: _272  and  _273
REMARK   99  A    between atoms: _275  and  _277
REMARK  100  A    between atoms: _277  and  _278
REMARK  101  A    between atoms: _277  and  _280
REMARK  102  A    between atoms: _280  and  _281
REMARK  103  A    between atoms: _284  and  _286
REMARK  104  A    between atoms: _286  and  _287
REMARK  105  A    between atoms: _286  and  _289
REMARK  106  A    between atoms: _289  and  _290
REMARK  107  A    between atoms: _293  and  _295
REMARK  108  A    between atoms: _295  and  _296
REMARK  109  A    between atoms: _295  and  _298
REMARK  110  A    between atoms: _298  and  _299
REMARK  111  A    between atoms: _303  and  _304
REMARK  112  A    between atoms: _310  and  _311
REMARK  113  A    between atoms: _316  and  _318
REMARK  114  A    between atoms: _318  and  _319
REMARK  115  A    between atoms: _318  and  _321
REMARK  116  A    between atoms: _321  and  _322
REMARK  117  A    between atoms: _325  and  _327
REMARK  118  A    between atoms: _327  and  _328
REMARK  119  A    between atoms: _327  and  _330
REMARK  120  A    between atoms: _330  and  _331
REMARK  121  A    between atoms: _334  and  _336
REMARK  122  A    between atoms: _336  and  _337
REMARK  123  A    between atoms: _336  and  _339
REMARK  124  A    between atoms: _341  and  _343
REMARK  125  A    between atoms: _343  and  _344
REMARK  126  A    between atoms: _343  and  _346
REMARK  127  A    between atoms: _349  and  _351
REMARK  128  A    between atoms: _351  and  _352
REMARK  129  A    between atoms: _351  and  _354
REMARK  130  A    between atoms: _354  and  _355
REMARK  131  A    between atoms: _365  and  _367
REMARK  132  A    between atoms: _367  and  _368
REMARK  133  A    between atoms: _367  and  _370
REMARK  134  A    between atoms: _370  and  _371
REMARK  135  A    between atoms: _376  and  _378
REMARK  136  A    between atoms: _378  and  _379
REMARK  137  A    between atoms: _378  and  _381
REMARK  138  A    between atoms: _381  and  _382
REMARK  139  A    between atoms: _382  and  _383
REMARK  140  A    between atoms: _383  and  _384
REMARK                            x       y       z     vdW  Elec       q    Type
REMARK                         _______ _______ _______ _____ _____    ______ ____
ROOT
ATOM      1  C   THR A   4      22.062   1.011  16.358  0.00  0.00    +0.246 C 
ATOM      2  O   THR A   4      21.609   2.004  16.953  0.00  0.00    -0.273 OA
ATOM      3  N   PRO A   5      23.353   0.959  15.893  0.00  0.00    -0.272 N 
ATOM      4  CA  PRO A   5      24.089   2.209  15.996  0.00  0.00    +0.152 C 
ATOM      5  CB  PRO A   5      25.320   1.918  15.118  0.00  0.00    +0.031 C 
ATOM      6  CG  PRO A   5      25.551   0.425  15.492  0.00  0.00    +0.024 C 
ATOM      7  CD  PRO A   5      24.149  -0.132  15.331  0.00  0.00    +0.094 C 
ENDROOT
BRANCH   4   8
ATOM      8  C   PRO A   5      23.263   3.376  15.423  0.00  0.00    +0.244 C 
ATOM      9  N   PRO A   6      23.317   4.547  16.029  0.00  0.00    -0.272 N 
ATOM     10  CA  PRO A   6      24.270   4.932  17.085  0.00  0.00    +0.152 C 
ATOM     11  CB  PRO A   6      24.405   6.447  16.911  0.00  0.00    +0.031 C 
ATOM     12  CG  PRO A   6      23.104   6.872  16.359  0.00  0.00    +0.024 C 
ATOM     13  CD  PRO A   6      22.581   5.709  15.493  0.00  0.00    +0.094 C 
ATOM     14  O   PRO A   5      22.663   3.243  14.316  0.00  0.00    -0.273 OA
BRANCH  10  15
ATOM     15  C   PRO A   6      23.860   4.600  18.535  0.00  0.00    +0.241 C 
ATOM     16  O   PRO A   6      24.466   5.122  19.479  0.00  0.00    -0.273 OA
ATOM     17  N   LEU A   7      22.834   3.751  18.687  0.00  0.00    -0.297 N 
ATOM     18  H   LEU A   7      22.231   3.526  17.871  0.00  0.00    +0.150 HD
BRANCH  17  19
ATOM     19  CA  LEU A   7      22.547   3.130  19.998  0.00  0.00    +0.149 C 
BRANCH  19  20
ATOM     20  C   LEU A   7      22.133   4.205  21.042  0.00  0.00    +0.241 C 
ATOM     21  O   LEU A   7      22.293   3.994  22.258  0.00  0.00    -0.273 OA
ATOM     22  N   LEU A   8      21.514   5.280  20.549  0.00  0.00    -0.298 N 
ATOM     23  H   LEU A   8      21.251   5.312  19.543  0.00  0.00    +0.150 HD
BRANCH  22  24
ATOM     24  CA  LEU A   8      21.199   6.433  21.435  0.00  0.00    +0.137 C 
BRANCH  24  25
ATOM     25  C   LEU A   8      20.182   6.091  22.550  0.00  0.00    +0.227 C 
ATOM     26  O   LEU A   8      19.162   5.386  22.293  0.00  0.00    -0.286 OA
ENDBRANCH  24  25
BRANCH  24  27
ATOM     27  CB  LEU A   8      20.668   7.603  20.596  0.00  0.00    +0.028 C 
BRANCH  27  28
ATOM     28  CG  LEU A   8      21.734   8.099  19.606  0.00  0.00    +0.002 C 
ATOM     29  CD2 LEU A   8      22.975   8.639  20.310  0.00  0.00    +0.000 C 
ATOM     30  CD1 LEU A   8      21.094   9.155  18.603  0.00  0.00    +0.000 C 
ENDBRANCH  27  28
ENDBRANCH  24  27
ENDBRANCH  22  24
ENDBRANCH  19  20
BRANCH  19  31
ATOM     31  CB  LEU A   7      23.692   2.263  20.547  0.00  0.00    +0.029 C 
BRANCH  31  32
ATOM     32  CG  LEU A   7      24.008   1.103  19.575  0.00  0.00    +0.002 C 
ATOM     33  CD2 LEU A   7      25.337   0.455  20.028  0.00  0.00    +0.000 C 
ATOM     34  CD1 LEU A   7      22.926   0.054  19.573  0.00  0.00    +0.000 C 
ENDBRANCH  31  32
ENDBRANCH  19  31
ENDBRANCH  17  19
ENDBRANCH  10  15
ENDBRANCH   4   8
BRANCH   1  35
ATOM     35  CA  THR A   4      21.202  -0.185  16.005  0.00  0.00    +0.176 C 
BRANCH  35  38
ATOM     36  C   THR A   3      20.010  -1.307  17.838  0.00  0.00    +0.243 C 
ATOM     37  O   THR A   3      20.695  -2.325  17.670  0.00  0.00    -0.273 OA
ATOM     38  N   THR A   4      20.134  -0.242  17.043  0.00  0.00    -0.295 N 
ATOM     39  H   THR A   4      19.478   0.558  17.149  0.00  0.00    +0.150 HD
BRANCH  36  40
ATOM     40  CA  THR A   3      19.033  -1.263  18.995  0.00  0.00    +0.176 C 
BRANCH  40  43
ATOM     41  C   LEU A   2      18.708   0.978  19.804  0.00  0.00    +0.241 C 
ATOM     42  O   LEU A   2      19.732   0.827  20.513  0.00  0.00    -0.273 OA
ATOM     43  N   THR A   3      18.307   0.027  18.964  0.00  0.00    -0.295 N 
ATOM     44  H   THR A   3      17.513   0.184  18.310  0.00  0.00    +0.150 HD
BRANCH  41  45
ATOM     45  CA  LEU A   2      17.963   2.321  19.712  0.00  0.00    +0.149 C 
BRANCH  45  48
ATOM     46  C   SER A   1      17.514   2.295  22.094  0.00  0.00    +0.241 C 
ATOM     47  O   SER A   1      16.739   1.298  21.979  0.00  0.00    -0.274 OA
ATOM     48  N   LEU A   2      18.028   2.951  21.053  0.00  0.00    -0.297 N 
ATOM     49  H   LEU A   2      18.466   3.886  21.179  0.00  0.00    +0.150 HD
BRANCH  46  50
ATOM     50  CA  SER A   1      17.949   2.749  23.481  0.00  0.00    +0.174 C 
BRANCH  50  51
ATOM     51  N   SER A   1      17.197   2.086  24.555  0.00  0.00    -0.236 NA
ATOM     52  H   SER A   1      16.994   1.067  24.502  0.00  0.00    +0.142 HD
ENDBRANCH  50  51
BRANCH  50  53
ATOM     53  CB  SER A   1      19.453   2.349  23.600  0.00  0.00    +0.163 C 
BRANCH  53  54
ATOM     54  OG  SER A   1      19.703   0.952  23.267  0.00  0.00    -0.380 OA
ATOM     55  H   SER A   1      19.420   0.781  22.334  0.00  0.00    +0.211 HD
ENDBRANCH  53  54
ENDBRANCH  50  53
ENDBRANCH  46  50
ENDBRANCH  45  48
BRANCH  45  56
ATOM     56  CB  LEU A   2      18.724   3.178  18.686  0.00  0.00    +0.029 C 
BRANCH  56  57
ATOM     57  CG  LEU A   2      18.403   4.678  18.632  0.00  0.00    +0.002 C 
ATOM     58  CD2 LEU A   2      16.929   4.945  18.467  0.00  0.00    +0.000 C 
ATOM     59  CD1 LEU A   2      19.156   5.214  17.363  0.00  0.00    +0.000 C 
ENDBRANCH  56  57
ENDBRANCH  45  56
ENDBRANCH  41  45
ENDBRANCH  40  43
BRANCH  40  60
ATOM     60  CB  THR A   3      18.027  -2.426  18.838  0.00  0.00    +0.137 C 
ATOM     61  CG2 THR A   3      17.059  -2.443  20.020  0.00  0.00    +0.034 C 
BRANCH  60  62
ATOM     62  OG1 THR A   3      17.289  -2.290  17.599  0.00  0.00    -0.382 OA
ATOM     63  HG1 THR A   3      16.650  -3.041  17.513  0.00  0.00    +0.210 HD
ENDBRANCH  60  62
ENDBRANCH  40  60
ENDBRANCH  36  40
ENDBRANCH  35  38
BRANCH  35  64
ATOM     64  CB  THR A   4      20.566   0.061  14.658  0.00  0.00    +0.137 C 
ATOM     65  CG2 THR A   4      19.760  -1.116  14.237  0.00  0.00    +0.034 C 
BRANCH  64  66
ATOM     66  OG1 THR A   4      19.668   1.184  14.762  0.00  0.00    -0.382 OA
ATOM     67  HG1 THR A   4      20.176   1.986  15.044  0.00  0.00    +0.210 HD
ENDBRANCH  64  66
ENDBRANCH  35  64
ENDBRANCH   1  35
TORSDOF 26
REMARK  Name = ../refined-set-2016/4q87/4q87_pocket.pdb
REMARK  140 active torsions:
REMARK  status: ('A' for Active; 'I' for Inactive)
REMARK    1  A    between atoms: _1  and  _3
REMARK    2  A    between atoms: _3  and  _4
REMARK    3  A    between atoms: _3  and  _6
REMARK    4  A    between atoms: _6  and  _7
REMARK    5  A    between atoms: _17  and  _19
REMARK    6  A    between atoms: _19  and  _20
REMARK    7  A    between atoms: _19  and  _22
REMARK    8  A    between atoms: _22  and  _23
REMARK    9  A    between atoms: _28  and  _29
REMARK   10  A    between atoms: _31  and  _33
REMARK   11  A    between atoms: _33  and  _34
REMARK   12  A    between atoms: _33  and  _36
REMARK   13  A    between atoms: _36  and  _37
REMARK   14  A    between atoms: _39  and  _41
REMARK   15  A    between atoms: _41  and  _42
REMARK   16  A    between atoms: _41  and  _44
REMARK   17  A    between atoms: _44  and  _45
REMARK   18  A    between atoms: _50  and  _52
REMARK   19  A    between atoms: _52  and  _53
REMARK   20  A    between atoms: _52  and  _55
REMARK   21  A    between atoms: _55  and  _56
REMARK   22  A    between atoms: _61  and  _63
REMARK   23  A    between atoms: _63  and  _64
REMARK   24  A    between atoms: _67  and  _69
REMARK   25  A    between atoms: _69  and  _70
REMARK   26  A    between atoms: _69  and  _72
REMARK   27  A    between atoms: _72  and  _73
REMARK   28  A    between atoms: _78  and  _80
REMARK   29  A    between atoms: _80  and  _81
REMARK   30  A    between atoms: _80  and  _83
REMARK   31  A    between atoms: _83  and  _84
REMARK   32  A    between atoms: _87  and  _89
REMARK   33  A    between atoms: _89  and  _90
REMARK   34  A    between atoms: _89  and  _92
REMARK   35  A    between atoms: _92  and  _93
REMARK   36  A    between atoms: _93  and  _94
REMARK   37  A    between atoms: _99  and  _101
REMARK   38  A    between atoms: _101  and  _102
REMARK   39  A    between atoms: _101  and  _104
REMARK   40  A    between atoms: _104  and  _105
REMARK   41  A    between atoms: _111  and  _113
REMARK   42  A    between atoms: _124  and  _127
REMARK   43  A    between atoms: _127  and  _128
REMARK   44  A    between atoms: _136  and  _137
REMARK   45  A    between atoms: _145  and  _147
REMARK   46  A    between atoms: _147  and  _148
REMARK   47  A    between atoms: _147  and  _150
REMARK   48  A    between atoms: _150  and  _151
REMARK   49  A    between atoms: _151  and  _152
REMARK   50  A    between atoms: _155  and  _157
REMARK   51  A    between atoms: _157  and  _158
REMARK   52  A    between atoms: _157  and  _160
REMARK   53  A    between atoms: _160  and  _161
REMARK   54  A    between atoms: _166  and  _168
REMARK   55  A    between atoms: _168  and  _169
REMARK   56  A    between atoms: _168  and  _171
REMARK   57  A    between atoms: _171  and  _172
REMARK   58  A    between atoms: _172  and  _173
REMARK   59  A    between atoms: _176  and  _178
REMARK   60  A    between atoms: _178  and  _179
REMARK   61  A    between atoms: _178  and  _181
REMARK   62  A    between atoms: _181  and  _182
REMARK   63  A    between atoms: _185  and  _187
REMARK   64  A    between atoms: _187  and  _188
REMARK   65  A    between atoms: _187  and  _190
REMARK   66  A    between atoms: _190  and  _191
REMARK   67  A    between atoms: _192  and  ZN_393
REMARK   68  A    between atoms: _196  and  _198
REMARK   69  A    between atoms: _198  and  _199
REMARK   70  A    between atoms: _198  and  _201
REMARK   71  A    between atoms: _201  and  _202
REMARK   72  A    between atoms: _205  and  _207
REMARK   73  A    between atoms: _207  and  _208
REMARK   74  A    between atoms: _207  and  _210
REMARK   75  A    between atoms: _213  and  _215
REMARK   76  A    between atoms: _215  and  _216
REMARK   77  A    between atoms: _215  and  _218
REMARK   78  A    between atoms: _218  and  _219
REMARK   79  A    between atoms: _224  and  _226
REMARK   80  A    between atoms: _226  and  _227
REMARK   81  A    between atoms: _226  and  _229
REMARK   82  A    between atoms: _229  and  _230
REMARK   83  A    between atoms: _236  and  _238
REMARK   84  A    between atoms: _238  and  _239
REMARK   85  A    between atoms: _238  and  _241
REMARK   86  A    between atoms: _244  and  _246
REMARK   87  A    between atoms: _246  and  _247
REMARK   88  A    between atoms: _246  and  _249
REMARK   89  A    between atoms: _249  and  _250
REMARK   90  A    between atoms: _253  and  _255
REMARK   91  A    between atoms: _255  and  _256
REMARK   92  A    between atoms: _259  and  _261
REMARK   93  A    between atoms: _261  and  _262
REMARK   94  A    between atoms: _261  and  _264
REMARK   95  A    between atoms: _267  and  _269
REMARK   96  A    between atoms: _269  and  _270
REMARK   97  A    between atoms: _269  and  _272
REMARK   98  A    between atoms: _272  and  _273
REMARK   99  A    between atoms: _275  and  _277
REMARK  100  A    between atoms: _277  and  _278
REMARK  101  A    between atoms: _277  and  _280
REMARK  102  A    between atoms: _280  and  _281
REMARK  103  A    between atoms: _284  and  _286
REMARK  104  A    between atoms: _286  and  _287
REMARK  105  A    between atoms: _286  and  _289
REMARK  106  A    between atoms: _289  and  _290
REMARK  107  A    between atoms: _293  and  _295
REMARK  108  A    between atoms: _295  and  _296
REMARK  109  A    between atoms: _295  and  _298
REMARK  110  A    between atoms: _298  and  _299
REMARK  111  A    between atoms: _303  and  _304
REMARK  112  A    between atoms: _310  and  _311
REMARK  113  A    between atoms: _316  and  _318
REMARK  114  A    between atoms: _318  and  _319
REMARK  115  A    between atoms: _318  and  _321
REMARK  116  A    between atoms: _321  and  _322
REMARK  117  A    between atoms: _325  and  _327
REMARK  118  A    between atoms: _327  and  _328
REMARK  119  A    between atoms: _327  and  _330
REMARK  120  A    between atoms: _330  and  _331
REMARK  121  A    between atoms: _334  and  _336
REMARK  122  A    between atoms: _336  and  _337
REMARK  123  A    between atoms: _336  and  _339
REMARK  124  A    between atoms: _341  and  _343
REMARK  125  A    between atoms: _343  and  _344
REMARK  126  A    between atoms: _343  and  _346
REMARK  127  A    between atoms: _349  and  _351
REMARK  128  A    between atoms: _351  and  _352
REMARK  129  A    between atoms: _351  and  _354
REMARK  130  A    between atoms: _354  and  _355
REMARK  131  A    between atoms: _365  and  _367
REMARK  132  A    between atoms: _367  and  _368
REMARK  133  A    between atoms: _367  and  _370
REMARK  134  A    between atoms: _370  and  _371
REMARK  135  A    between atoms: _376  and  _378
REMARK  136  A    between atoms: _378  and  _379
REMARK  137  A    between atoms: _378  and  _381
REMARK  138  A    between atoms: _381  and  _382
REMARK  139  A    between atoms: _382  and  _383
REMARK  140  A    between atoms: _383  and  _384
REMARK                            x       y       z     vdW  Elec       q    Type
REMARK                         _______ _______ _______ _____ _____    ______ ____
ROOT
ATOM      1  C   CYS A   1      15.037   7.490  24.173  0.00  0.00    +0.239 C 
ATOM      2  N   VAL A   2      14.996   6.172  24.324  0.00  0.00    -0.298 N 
ATOM      3  H   VAL A   2      15.815   5.657  24.705  0.00  0.00    +0.150 HD
ATOM      4  O   CYS A   1      14.037   8.178  24.061  0.00  0.00    -0.274 OA
ENDROOT
BRANCH   1   5
ATOM      5  CA  CYS A   1      16.385   8.119  23.973  0.00  0.00    +0.156 C 
BRANCH   5   6
ATOM      6  N   CYS A   1      17.494   7.134  24.049  0.00  0.00    -0.237 NA
ATOM      7  H   CYS A   1      17.570   6.380  23.337  0.00  0.00    +0.142 HD
ENDBRANCH   5   6
BRANCH   5   8
ATOM      8  CB  CYS A   1      16.241   8.734  22.564  0.00  0.00    +0.095 C 
ATOM      9  SG  CYS A   1      17.772   9.152  21.768  0.00  0.00    -0.080 S 
ENDBRANCH   5   8
ENDBRANCH   1   5
BRANCH   2  10
ATOM     10  CA  VAL A   2      13.748   5.440  23.936  0.00  0.00    +0.137 C 
BRANCH  10  11
ATOM     11  CB  VAL A   2      14.048   4.137  23.153  0.00  0.00    +0.026 C 
ATOM     12  CG2 VAL A   2      12.713   3.387  22.747  0.00  0.00    +0.002 C 
ATOM     13  CG1 VAL A   2      14.825   4.426  21.833  0.00  0.00    +0.002 C 
ENDBRANCH  10  11
BRANCH  10  14
ATOM     14  C   VAL A   2      12.969   4.980  25.169  0.00  0.00    +0.227 C 
ATOM     15  O   VAL A   2      13.473   4.280  26.069  0.00  0.00    -0.286 OA
ENDBRANCH  10  14
ENDBRANCH   2  10
TORSDOF 6
REMARK  Name = ../refined-set-2016/4q87/4q87_pocket.pdb
REMARK  140 active torsions:
REMARK  status: ('A' for Active; 'I' for Inactive)
REMARK    1  A    between atoms: _1  and  _3
REMARK    2  A    between atoms: _3  and  _4
REMARK    3  A    between atoms: _3  and  _6
REMARK    4  A    between atoms: _6  and  _7
REMARK    5  A    between atoms: _17  and  _19
REMARK    6  A    between atoms: _19  and  _20
REMARK    7  A    between atoms: _19  and  _22
REMARK    8  A    between atoms: _22  and  _23
REMARK    9  A    between atoms: _28  and  _29
REMARK   10  A    between atoms: _31  and  _33
REMARK   11  A    between atoms: _33  and  _34
REMARK   12  A    between atoms: _33  and  _36
REMARK   13  A    between atoms: _36  and  _37
REMARK   14  A    between atoms: _39  and  _41
REMARK   15  A    between atoms: _41  and  _42
REMARK   16  A    between atoms: _41  and  _44
REMARK   17  A    between atoms: _44  and  _45
REMARK   18  A    between atoms: _50  and  _52
REMARK   19  A    between atoms: _52  and  _53
REMARK   20  A    between atoms: _52  and  _55
REMARK   21  A    between atoms: _55  and  _56
REMARK   22  A    between atoms: _61  and  _63
REMARK   23  A    between atoms: _63  and  _64
REMARK   24  A    between atoms: _67  and  _69
REMARK   25  A    between atoms: _69  and  _70
REMARK   26  A    between atoms: _69  and  _72
REMARK   27  A    between atoms: _72  and  _73
REMARK   28  A    between atoms: _78  and  _80
REMARK   29  A    between atoms: _80  and  _81
REMARK   30  A    between atoms: _80  and  _83
REMARK   31  A    between atoms: _83  and  _84
REMARK   32  A    between atoms: _87  and  _89
REMARK   33  A    between atoms: _89  and  _90
REMARK   34  A    between atoms: _89  and  _92
REMARK   35  A    between atoms: _92  and  _93
REMARK   36  A    between atoms: _93  and  _94
REMARK   37  A    between atoms: _99  and  _101
REMARK   38  A    between atoms: _101  and  _102
REMARK   39  A    between atoms: _101  and  _104
REMARK   40  A    between atoms: _104  and  _105
REMARK   41  A    between atoms: _111  and  _113
REMARK   42  A    between atoms: _124  and  _127
REMARK   43  A    between atoms: _127  and  _128
REMARK   44  A    between atoms: _136  and  _137
REMARK   45  A    between atoms: _145  and  _147
REMARK   46  A    between atoms: _147  and  _148
REMARK   47  A    between atoms: _147  and  _150
REMARK   48  A    between atoms: _150  and  _151
REMARK   49  A    between atoms: _151  and  _152
REMARK   50  A    between atoms: _155  and  _157
REMARK   51  A    between atoms: _157  and  _158
REMARK   52  A    between atoms: _157  and  _160
REMARK   53  A    between atoms: _160  and  _161
REMARK   54  A    between atoms: _166  and  _168
REMARK   55  A    between atoms: _168  and  _169
REMARK   56  A    between atoms: _168  and  _171
REMARK   57  A    between atoms: _171  and  _172
REMARK   58  A    between atoms: _172  and  _173
REMARK   59  A    between atoms: _176  and  _178
REMARK   60  A    between atoms: _178  and  _179
REMARK   61  A    between atoms: _178  and  _181
REMARK   62  A    between atoms: _181  and  _182
REMARK   63  A    between atoms: _185  and  _187
REMARK   64  A    between atoms: _187  and  _188
REMARK   65  A    between atoms: _187  and  _190
REMARK   66  A    between atoms: _190  and  _191
REMARK   67  A    between atoms: _192  and  ZN_393
REMARK   68  A    between atoms: _196  and  _198
REMARK   69  A    between atoms: _198  and  _199
REMARK   70  A    between atoms: _198  and  _201
REMARK   71  A    between atoms: _201  and  _202
REMARK   72  A    between atoms: _205  and  _207
REMARK   73  A    between atoms: _207  and  _208
REMARK   74  A    between atoms: _207  and  _210
REMARK   75  A    between atoms: _213  and  _215
REMARK   76  A    between atoms: _215  and  _216
REMARK   77  A    between atoms: _215  and  _218
REMARK   78  A    between atoms: _218  and  _219
REMARK   79  A    between atoms: _224  and  _226
REMARK   80  A    between atoms: _226  and  _227
REMARK   81  A    between atoms: _226  and  _229
REMARK   82  A    between atoms: _229  and  _230
REMARK   83  A    between atoms: _236  and  _238
REMARK   84  A    between atoms: _238  and  _239
REMARK   85  A    between atoms: _238  and  _241
REMARK   86  A    between atoms: _244  and  _246
REMARK   87  A    between atoms: _246  and  _247
REMARK   88  A    between atoms: _246  and  _249
REMARK   89  A    between atoms: _249  and  _250
REMARK   90  A    between atoms: _253  and  _255
REMARK   91  A    between atoms: _255  and  _256
REMARK   92  A    between atoms: _259  and  _261
REMARK   93  A    between atoms: _261  and  _262
REMARK   94  A    between atoms: _261  and  _264
REMARK   95  A    between atoms: _267  and  _269
REMARK   96  A    between atoms: _269  and  _270
REMARK   97  A    between atoms: _269  and  _272
REMARK   98  A    between atoms: _272  and  _273
REMARK   99  A    between atoms: _275  and  _277
REMARK  100  A    between atoms: _277  and  _278
REMARK  101  A    between atoms: _277  and  _280
REMARK  102  A    between atoms: _280  and  _281
REMARK  103  A    between atoms: _284  and  _286
REMARK  104  A    between atoms: _286  and  _287
REMARK  105  A    between atoms: _286  and  _289
REMARK  106  A    between atoms: _289  and  _290
REMARK  107  A    between atoms: _293  and  _295
REMARK  108  A    between atoms: _295  and  _296
REMARK  109  A    between atoms: _295  and  _298
REMARK  110  A    between atoms: _298  and  _299
REMARK  111  A    between atoms: _303  and  _304
REMARK  112  A    between atoms: _310  and  _311
REMARK  113  A    between atoms: _316  and  _318
REMARK  114  A    between atoms: _318  and  _319
REMARK  115  A    between atoms: _318  and  _321
REMARK  116  A    between atoms: _321  and  _322
REMARK  117  A    between atoms: _325  and  _327
REMARK  118  A    between atoms: _327  and  _328
REMARK  119  A    between atoms: _327  and  _330
REMARK  120  A    between atoms: _330  and  _331
REMARK  121  A    between atoms: _334  and  _336
REMARK  122  A    between atoms: _336  and  _337
REMARK  123  A    between atoms: _336  and  _339
REMARK  124  A    between atoms: _341  and  _343
REMARK  125  A    between atoms: _343  and  _344
REMARK  126  A    between atoms: _343  and  _346
REMARK  127  A    between atoms: _349  and  _351
REMARK  128  A    between atoms: _351  and  _352
REMARK  129  A    between atoms: _351  and  _354
REMARK  130  A    between atoms: _354  and  _355
REMARK  131  A    between atoms: _365  and  _367
REMARK  132  A    between atoms: _367  and  _368
REMARK  133  A    between atoms: _367  and  _370
REMARK  134  A    between atoms: _370  and  _371
REMARK  135  A    between atoms: _376  and  _378
REMARK  136  A    between atoms: _378  and  _379
REMARK  137  A    between atoms: _378  and  _381
REMARK  138  A    between atoms: _381  and  _382
REMARK  139  A    between atoms: _382  and  _383
REMARK  140  A    between atoms: _383  and  _384
REMARK                            x       y       z     vdW  Elec       q    Type
REMARK                         _______ _______ _______ _____ _____    ______ ____
ROOT
ATOM      1  CG  TRP A   1      12.248  -0.059  24.198  0.00  0.00    -0.002 A 
ATOM      2  CD1 TRP A   1      13.521   0.493  24.395  0.00  0.00    +0.068 A 
ATOM      3  NE1 TRP A   1      14.235   0.477  23.204  0.00  0.00    -0.352 N 
ATOM      4  HE1 TRP A   1      15.181   0.882  23.052  0.00  0.00    +0.166 HD
ATOM      5  CE2 TRP A   1      13.454  -0.182  22.242  0.00  0.00    +0.056 A 
ATOM      6  CZ2 TRP A   1      13.719  -0.428  20.901  0.00  0.00    +0.017 A 
ATOM      7  CH2 TRP A   1      12.758  -1.114  20.173  0.00  0.00    +0.001 A 
ATOM      8  CZ3 TRP A   1      11.507  -1.402  20.764  0.00  0.00    +0.000 A 
ATOM      9  CE3 TRP A   1      11.262  -1.153  22.064  0.00  0.00    +0.001 A 
ATOM     10  CD2 TRP A   1      12.214  -0.492  22.828  0.00  0.00    +0.013 A 
ENDROOT
BRANCH   1  11
ATOM     11  CB  TRP A   1      11.138  -0.185  25.191  0.00  0.00    +0.053 C 
BRANCH  11  12
ATOM     12  CA  TRP A   1      10.160   1.039  25.006  0.00  0.00    +0.137 C 
BRANCH  12  13
ATOM     13  N   TRP A   1      10.616   2.236  25.715  0.00  0.00    -0.239 NA
ATOM     14  H   TRP A   1      11.243   2.148  26.540  0.00  0.00    +0.142 HD
ENDBRANCH  12  13
BRANCH  12  15
ATOM     15  C   TRP A   1       8.792   0.639  25.486  0.00  0.00    +0.224 C 
ATOM     16  O   TRP A   1       8.553   0.561  26.716  0.00  0.00    -0.287 OA
ENDBRANCH  12  15
ENDBRANCH  11  12
ENDBRANCH   1  11
TORSDOF 4
REMARK  Name = ../refined-set-2016/4q87/4q87_pocket.pdb
REMARK  140 active torsions:
REMARK  status: ('A' for Active; 'I' for Inactive)
REMARK    1  A    between atoms: _1  and  _3
REMARK    2  A    between atoms: _3  and  _4
REMARK    3  A    between atoms: _3  and  _6
REMARK    4  A    between atoms: _6  and  _7
REMARK    5  A    between atoms: _17  and  _19
REMARK    6  A    between atoms: _19  and  _20
REMARK    7  A    between atoms: _19  and  _22
REMARK    8  A    between atoms: _22  and  _23
REMARK    9  A    between atoms: _28  and  _29
REMARK   10  A    between atoms: _31  and  _33
REMARK   11  A    between atoms: _33  and  _34
REMARK   12  A    between atoms: _33  and  _36
REMARK   13  A    between atoms: _36  and  _37
REMARK   14  A    between atoms: _39  and  _41
REMARK   15  A    between atoms: _41  and  _42
REMARK   16  A    between atoms: _41  and  _44
REMARK   17  A    between atoms: _44  and  _45
REMARK   18  A    between atoms: _50  and  _52
REMARK   19  A    between atoms: _52  and  _53
REMARK   20  A    between atoms: _52  and  _55
REMARK   21  A    between atoms: _55  and  _56
REMARK   22  A    between atoms: _61  and  _63
REMARK   23  A    between atoms: _63  and  _64
REMARK   24  A    between atoms: _67  and  _69
REMARK   25  A    between atoms: _69  and  _70
REMARK   26  A    between atoms: _69  and  _72
REMARK   27  A    between atoms: _72  and  _73
REMARK   28  A    between atoms: _78  and  _80
REMARK   29  A    between atoms: _80  and  _81
REMARK   30  A    between atoms: _80  and  _83
REMARK   31  A    between atoms: _83  and  _84
REMARK   32  A    between atoms: _87  and  _89
REMARK   33  A    between atoms: _89  and  _90
REMARK   34  A    between atoms: _89  and  _92
REMARK   35  A    between atoms: _92  and  _93
REMARK   36  A    between atoms: _93  and  _94
REMARK   37  A    between atoms: _99  and  _101
REMARK   38  A    between atoms: _101  and  _102
REMARK   39  A    between atoms: _101  and  _104
REMARK   40  A    between atoms: _104  and  _105
REMARK   41  A    between atoms: _111  and  _113
REMARK   42  A    between atoms: _124  and  _127
REMARK   43  A    between atoms: _127  and  _128
REMARK   44  A    between atoms: _136  and  _137
REMARK   45  A    between atoms: _145  and  _147
REMARK   46  A    between atoms: _147  and  _148
REMARK   47  A    between atoms: _147  and  _150
REMARK   48  A    between atoms: _150  and  _151
REMARK   49  A    between atoms: _151  and  _152
REMARK   50  A    between atoms: _155  and  _157
REMARK   51  A    between atoms: _157  and  _158
REMARK   52  A    between atoms: _157  and  _160
REMARK   53  A    between atoms: _160  and  _161
REMARK   54  A    between atoms: _166  and  _168
REMARK   55  A    between atoms: _168  and  _169
REMARK   56  A    between atoms: _168  and  _171
REMARK   57  A    between atoms: _171  and  _172
REMARK   58  A    between atoms: _172  and  _173
REMARK   59  A    between atoms: _176  and  _178
REMARK   60  A    between atoms: _178  and  _179
REMARK   61  A    between atoms: _178  and  _181
REMARK   62  A    between atoms: _181  and  _182
REMARK   63  A    between atoms: _185  and  _187
REMARK   64  A    between atoms: _187  and  _188
REMARK   65  A    between atoms: _187  and  _190
REMARK   66  A    between atoms: _190  and  _191
REMARK   67  A    between atoms: _192  and  ZN_393
REMARK   68  A    between atoms: _196  and  _198
REMARK   69  A    between atoms: _198  and  _199
REMARK   70  A    between atoms: _198  and  _201
REMARK   71  A    between atoms: _201  and  _202
REMARK   72  A    between atoms: _205  and  _207
REMARK   73  A    between atoms: _207  and  _208
REMARK   74  A    between atoms: _207  and  _210
REMARK   75  A    between atoms: _213  and  _215
REMARK   76  A    between atoms: _215  and  _216
REMARK   77  A    between atoms: _215  and  _218
REMARK   78  A    between atoms: _218  and  _219
REMARK   79  A    between atoms: _224  and  _226
REMARK   80  A    between atoms: _226  and  _227
REMARK   81  A    between atoms: _226  and  _229
REMARK   82  A    between atoms: _229  and  _230
REMARK   83  A    between atoms: _236  and  _238
REMARK   84  A    between atoms: _238  and  _239
REMARK   85  A    between atoms: _238  and  _241
REMARK   86  A    between atoms: _244  and  _246
REMARK   87  A    between atoms: _246  and  _247
REMARK   88  A    between atoms: _246  and  _249
REMARK   89  A    between atoms: _249  and  _250
REMARK   90  A    between atoms: _253  and  _255
REMARK   91  A    between atoms: _255  and  _256
REMARK   92  A    between atoms: _259  and  _261
REMARK   93  A    between atoms: _261  and  _262
REMARK   94  A    between atoms: _261  and  _264
REMARK   95  A    between atoms: _267  and  _269
REMARK   96  A    between atoms: _269  and  _270
REMARK   97  A    between atoms: _269  and  _272
REMARK   98  A    between atoms: _272  and  _273
REMARK   99  A    between atoms: _275  and  _277
REMARK  100  A    between atoms: _277  and  _278
REMARK  101  A    between atoms: _277  and  _280
REMARK  102  A    between atoms: _280  and  _281
REMARK  103  A    between atoms: _284  and  _286
REMARK  104  A    between atoms: _286  and  _287
REMARK  105  A    between atoms: _286  and  _289
REMARK  106  A    between atoms: _289  and  _290
REMARK  107  A    between atoms: _293  and  _295
REMARK  108  A    between atoms: _295  and  _296
REMARK  109  A    between atoms: _295  and  _298
REMARK  110  A    between atoms: _298  and  _299
REMARK  111  A    between atoms: _303  and  _304
REMARK  112  A    between atoms: _310  and  _311
REMARK  113  A    between atoms: _316  and  _318
REMARK  114  A    between atoms: _318  and  _319
REMARK  115  A    between atoms: _318  and  _321
REMARK  116  A    between atoms: _321  and  _322
REMARK  117  A    between atoms: _325  and  _327
REMARK  118  A    between atoms: _327  and  _328
REMARK  119  A    between atoms: _327  and  _330
REMARK  120  A    between atoms: _330  and  _331
REMARK  121  A    between atoms: _334  and  _336
REMARK  122  A    between atoms: _336  and  _337
REMARK  123  A    between atoms: _336  and  _339
REMARK  124  A    between atoms: _341  and  _343
REMARK  125  A    between atoms: _343  and  _344
REMARK  126  A    between atoms: _343  and  _346
REMARK  127  A    between atoms: _349  and  _351
REMARK  128  A    between atoms: _351  and  _352
REMARK  129  A    between atoms: _351  and  _354
REMARK  130  A    between atoms: _354  and  _355
REMARK  131  A    between atoms: _365  and  _367
REMARK  132  A    between atoms: _367  and  _368
REMARK  133  A    between atoms: _367  and  _370
REMARK  134  A    between atoms: _370  and  _371
REMARK  135  A    between atoms: _376  and  _378
REMARK  136  A    between atoms: _378  and  _379
REMARK  137  A    between atoms: _378  and  _381
REMARK  138  A    between atoms: _381  and  _382
REMARK  139  A    between atoms: _382  and  _383
REMARK  140  A    between atoms: _383  and  _384
REMARK                            x       y       z     vdW  Elec       q    Type
REMARK                         _______ _______ _______ _____ _____    ______ ____
ROOT
ATOM      1  CB  ASN A   1      19.066  -7.358  10.546  0.00  0.00    +0.110 C 
ENDROOT
BRANCH   1   2
ATOM      2  CG  ASN A   1      17.554  -7.529  10.290  0.00  0.00    +0.221 C 
ATOM      3  OD1 ASN A   1      16.943  -8.386  10.866  0.00  0.00    -0.275 OA
ATOM      4  ND2 ASN A   1      16.975  -6.642   9.441  0.00  0.00    -0.329 N 
ATOM      5 HD21 ASN A   1      15.951  -6.685   9.263  0.00  0.00    +0.145 HD
ATOM      6 HD22 ASN A   1      17.555  -5.919   8.969  0.00  0.00    +0.145 HD
ENDBRANCH   1   2
BRANCH   1   7
ATOM      7  CA  ASN A   1      19.588  -8.252  11.674  0.00  0.00    +0.142 C 
BRANCH   7   8
ATOM      8  N   ASN A   1      19.241  -9.660  11.400  0.00  0.00    -0.239 NA
ATOM      9  H   ASN A   1      18.334  -9.910  10.958  0.00  0.00    +0.142 HD
ENDBRANCH   7   8
BRANCH   7  10
ATOM     10  C   ASN A   1      19.070  -7.822  13.038  0.00  0.00    +0.225 C 
ATOM     11  O   ASN A   1      18.374  -6.785  13.195  0.00  0.00    -0.287 OA
ENDBRANCH   7  10
ENDBRANCH   1   7
TORSDOF 4
REMARK  Name = ../refined-set-2016/4q87/4q87_pocket.pdb
REMARK  140 active torsions:
REMARK  status: ('A' for Active; 'I' for Inactive)
REMARK    1  A    between atoms: _1  and  _3
REMARK    2  A    between atoms: _3  and  _4
REMARK    3  A    between atoms: _3  and  _6
REMARK    4  A    between atoms: _6  and  _7
REMARK    5  A    between atoms: _17  and  _19
REMARK    6  A    between atoms: _19  and  _20
REMARK    7  A    between atoms: _19  and  _22
REMARK    8  A    between atoms: _22  and  _23
REMARK    9  A    between atoms: _28  and  _29
REMARK   10  A    between atoms: _31  and  _33
REMARK   11  A    between atoms: _33  and  _34
REMARK   12  A    between atoms: _33  and  _36
REMARK   13  A    between atoms: _36  and  _37
REMARK   14  A    between atoms: _39  and  _41
REMARK   15  A    between atoms: _41  and  _42
REMARK   16  A    between atoms: _41  and  _44
REMARK   17  A    between atoms: _44  and  _45
REMARK   18  A    between atoms: _50  and  _52
REMARK   19  A    between atoms: _52  and  _53
REMARK   20  A    between atoms: _52  and  _55
REMARK   21  A    between atoms: _55  and  _56
REMARK   22  A    between atoms: _61  and  _63
REMARK   23  A    between atoms: _63  and  _64
REMARK   24  A    between atoms: _67  and  _69
REMARK   25  A    between atoms: _69  and  _70
REMARK   26  A    between atoms: _69  and  _72
REMARK   27  A    between atoms: _72  and  _73
REMARK   28  A    between atoms: _78  and  _80
REMARK   29  A    between atoms: _80  and  _81
REMARK   30  A    between atoms: _80  and  _83
REMARK   31  A    between atoms: _83  and  _84
REMARK   32  A    between atoms: _87  and  _89
REMARK   33  A    between atoms: _89  and  _90
REMARK   34  A    between atoms: _89  and  _92
REMARK   35  A    between atoms: _92  and  _93
REMARK   36  A    between atoms: _93  and  _94
REMARK   37  A    between atoms: _99  and  _101
REMARK   38  A    between atoms: _101  and  _102
REMARK   39  A    between atoms: _101  and  _104
REMARK   40  A    between atoms: _104  and  _105
REMARK   41  A    between atoms: _111  and  _113
REMARK   42  A    between atoms: _124  and  _127
REMARK   43  A    between atoms: _127  and  _128
REMARK   44  A    between atoms: _136  and  _137
REMARK   45  A    between atoms: _145  and  _147
REMARK   46  A    between atoms: _147  and  _148
REMARK   47  A    between atoms: _147  and  _150
REMARK   48  A    between atoms: _150  and  _151
REMARK   49  A    between atoms: _151  and  _152
REMARK   50  A    between atoms: _155  and  _157
REMARK   51  A    between atoms: _157  and  _158
REMARK   52  A    between atoms: _157  and  _160
REMARK   53  A    between atoms: _160  and  _161
REMARK   54  A    between atoms: _166  and  _168
REMARK   55  A    between atoms: _168  and  _169
REMARK   56  A    between atoms: _168  and  _171
REMARK   57  A    between atoms: _171  and  _172
REMARK   58  A    between atoms: _172  and  _173
REMARK   59  A    between atoms: _176  and  _178
REMARK   60  A    between atoms: _178  and  _179
REMARK   61  A    between atoms: _178  and  _181
REMARK   62  A    between atoms: _181  and  _182
REMARK   63  A    between atoms: _185  and  _187
REMARK   64  A    between atoms: _187  and  _188
REMARK   65  A    between atoms: _187  and  _190
REMARK   66  A    between atoms: _190  and  _191
REMARK   67  A    between atoms: _192  and  ZN_393
REMARK   68  A    between atoms: _196  and  _198
REMARK   69  A    between atoms: _198  and  _199
REMARK   70  A    between atoms: _198  and  _201
REMARK   71  A    between atoms: _201  and  _202
REMARK   72  A    between atoms: _205  and  _207
REMARK   73  A    between atoms: _207  and  _208
REMARK   74  A    between atoms: _207  and  _210
REMARK   75  A    between atoms: _213  and  _215
REMARK   76  A    between atoms: _215  and  _216
REMARK   77  A    between atoms: _215  and  _218
REMARK   78  A    between atoms: _218  and  _219
REMARK   79  A    between atoms: _224  and  _226
REMARK   80  A    between atoms: _226  and  _227
REMARK   81  A    between atoms: _226  and  _229
REMARK   82  A    between atoms: _229  and  _230
REMARK   83  A    between atoms: _236  and  _238
REMARK   84  A    between atoms: _238  and  _239
REMARK   85  A    between atoms: _238  and  _241
REMARK   86  A    between atoms: _244  and  _246
REMARK   87  A    between atoms: _246  and  _247
REMARK   88  A    between atoms: _246  and  _249
REMARK   89  A    between atoms: _249  and  _250
REMARK   90  A    between atoms: _253  and  _255
REMARK   91  A    between atoms: _255  and  _256
REMARK   92  A    between atoms: _259  and  _261
REMARK   93  A    between atoms: _261  and  _262
REMARK   94  A    between atoms: _261  and  _264
REMARK   95  A    between atoms: _267  and  _269
REMARK   96  A    between atoms: _269  and  _270
REMARK   97  A    between atoms: _269  and  _272
REMARK   98  A    between atoms: _272  and  _273
REMARK   99  A    between atoms: _275  and  _277
REMARK  100  A    between atoms: _277  and  _278
REMARK  101  A    between atoms: _277  and  _280
REMARK  102  A    between atoms: _280  and  _281
REMARK  103  A    between atoms: _284  and  _286
REMARK  104  A    between atoms: _286  and  _287
REMARK  105  A    between atoms: _286  and  _289
REMARK  106  A    between atoms: _289  and  _290
REMARK  107  A    between atoms: _293  and  _295
REMARK  108  A    between atoms: _295  and  _296
REMARK  109  A    between atoms: _295  and  _298
REMARK  110  A    between atoms: _298  and  _299
REMARK  111  A    between atoms: _303  and  _304
REMARK  112  A    between atoms: _310  and  _311
REMARK  113  A    between atoms: _316  and  _318
REMARK  114  A    between atoms: _318  and  _319
REMARK  115  A    between atoms: _318  and  _321
REMARK  116  A    between atoms: _321  and  _322
REMARK  117  A    between atoms: _325  and  _327
REMARK  118  A    between atoms: _327  and  _328
REMARK  119  A    between atoms: _327  and  _330
REMARK  120  A    between atoms: _330  and  _331
REMARK  121  A    between atoms: _334  and  _336
REMARK  122  A    between atoms: _336  and  _337
REMARK  123  A    between atoms: _336  and  _339
REMARK  124  A    between atoms: _341  and  _343
REMARK  125  A    between atoms: _343  and  _344
REMARK  126  A    between atoms: _343  and  _346
REMARK  127  A    between atoms: _349  and  _351
REMARK  128  A    between atoms: _351  and  _352
REMARK  129  A    between atoms: _351  and  _354
REMARK  130  A    between atoms: _354  and  _355
REMARK  131  A    between atoms: _365  and  _367
REMARK  132  A    between atoms: _367  and  _368
REMARK  133  A    between atoms: _367  and  _370
REMARK  134  A    between atoms: _370  and  _371
REMARK  135  A    between atoms: _376  and  _378
REMARK  136  A    between atoms: _378  and  _379
REMARK  137  A    between atoms: _378  and  _381
REMARK  138  A    between atoms: _381  and  _382
REMARK  139  A    between atoms: _382  and  _383
REMARK  140  A    between atoms: _383  and  _384
REMARK                            x       y       z     vdW  Elec       q    Type
REMARK                         _______ _______ _______ _____ _____    ______ ____
ROOT
ATOM      1  NE  ARG A   1      23.367  -3.946  21.234  0.00  0.00    -0.265 N 
ATOM      2  CZ  ARG A   1      23.534  -2.958  22.105  0.00  0.00    +0.342 C 
ATOM      3  NH2 ARG A   1      24.736  -2.752  22.621  0.00  0.00    -0.292 N 
ATOM      4 HH21 ARG A   1      24.883  -1.982  23.305  0.00  0.00    +0.255 HD
ATOM      5 HH22 ARG A   1      25.533  -3.360  22.343  0.00  0.00    +0.255 HD
ATOM      6  NH1 ARG A   1      22.542  -2.110  22.443  0.00  0.00    -0.292 N 
ATOM      7 HH11 ARG A   1      22.719  -1.350  23.131  0.00  0.00    +0.255 HD
ATOM      8 HH12 ARG A   1      21.600  -2.216  22.016  0.00  0.00    +0.255 HD
ATOM      9  HE  ARG A   1      24.193  -4.537  21.010  0.00  0.00    +0.259 HD
ENDROOT
BRANCH   1  10
ATOM     10  CD  ARG A   1      22.083  -4.268  20.555  0.00  0.00    +0.174 C 
BRANCH  10  11
ATOM     11  CG  ARG A   1      22.183  -5.684  19.967  0.00  0.00    +0.045 C 
BRANCH  11  12
ATOM     12  CB  ARG A   1      21.077  -5.917  18.886  0.00  0.00    +0.029 C 
BRANCH  12  13
ATOM     13  CA  ARG A   1      20.951  -7.356  18.408  0.00  0.00    +0.133 C 
BRANCH  13  14
ATOM     14  N   ARG A   1      19.998  -7.406  17.316  0.00  0.00    -0.239 NA
ATOM     15  H   ARG A   1      19.222  -6.714  17.281  0.00  0.00    +0.142 HD
ENDBRANCH  13  14
BRANCH  13  16
ATOM     16  C   ARG A   1      20.497  -8.213  19.571  0.00  0.00    +0.224 C 
ATOM     17  O   ARG A   1      19.293  -8.225  19.858  0.00  0.00    -0.287 OA
ENDBRANCH  13  16
ENDBRANCH  12  13
ENDBRANCH  11  12
ENDBRANCH  10  11
ENDBRANCH   1  10
TORSDOF 6
REMARK  Name = ../refined-set-2016/4q87/4q87_pocket.pdb
REMARK  140 active torsions:
REMARK  status: ('A' for Active; 'I' for Inactive)
REMARK    1  A    between atoms: _1  and  _3
REMARK    2  A    between atoms: _3  and  _4
REMARK    3  A    between atoms: _3  and  _6
REMARK    4  A    between atoms: _6  and  _7
REMARK    5  A    between atoms: _17  and  _19
REMARK    6  A    between atoms: _19  and  _20
REMARK    7  A    between atoms: _19  and  _22
REMARK    8  A    between atoms: _22  and  _23
REMARK    9  A    between atoms: _28  and  _29
REMARK   10  A    between atoms: _31  and  _33
REMARK   11  A    between atoms: _33  and  _34
REMARK   12  A    between atoms: _33  and  _36
REMARK   13  A    between atoms: _36  and  _37
REMARK   14  A    between atoms: _39  and  _41
REMARK   15  A    between atoms: _41  and  _42
REMARK   16  A    between atoms: _41  and  _44
REMARK   17  A    between atoms: _44  and  _45
REMARK   18  A    between atoms: _50  and  _52
REMARK   19  A    between atoms: _52  and  _53
REMARK   20  A    between atoms: _52  and  _55
REMARK   21  A    between atoms: _55  and  _56
REMARK   22  A    between atoms: _61  and  _63
REMARK   23  A    between atoms: _63  and  _64
REMARK   24  A    between atoms: _67  and  _69
REMARK   25  A    between atoms: _69  and  _70
REMARK   26  A    between atoms: _69  and  _72
REMARK   27  A    between atoms: _72  and  _73
REMARK   28  A    between atoms: _78  and  _80
REMARK   29  A    between atoms: _80  and  _81
REMARK   30  A    between atoms: _80  and  _83
REMARK   31  A    between atoms: _83  and  _84
REMARK   32  A    between atoms: _87  and  _89
REMARK   33  A    between atoms: _89  and  _90
REMARK   34  A    between atoms: _89  and  _92
REMARK   35  A    between atoms: _92  and  _93
REMARK   36  A    between atoms: _93  and  _94
REMARK   37  A    between atoms: _99  and  _101
REMARK   38  A    between atoms: _101  and  _102
REMARK   39  A    between atoms: _101  and  _104
REMARK   40  A    between atoms: _104  and  _105
REMARK   41  A    between atoms: _111  and  _113
REMARK   42  A    between atoms: _124  and  _127
REMARK   43  A    between atoms: _127  and  _128
REMARK   44  A    between atoms: _136  and  _137
REMARK   45  A    between atoms: _145  and  _147
REMARK   46  A    between atoms: _147  and  _148
REMARK   47  A    between atoms: _147  and  _150
REMARK   48  A    between atoms: _150  and  _151
REMARK   49  A    between atoms: _151  and  _152
REMARK   50  A    between atoms: _155  and  _157
REMARK   51  A    between atoms: _157  and  _158
REMARK   52  A    between atoms: _157  and  _160
REMARK   53  A    between atoms: _160  and  _161
REMARK   54  A    between atoms: _166  and  _168
REMARK   55  A    between atoms: _168  and  _169
REMARK   56  A    between atoms: _168  and  _171
REMARK   57  A    between atoms: _171  and  _172
REMARK   58  A    between atoms: _172  and  _173
REMARK   59  A    between atoms: _176  and  _178
REMARK   60  A    between atoms: _178  and  _179
REMARK   61  A    between atoms: _178  and  _181
REMARK   62  A    between atoms: _181  and  _182
REMARK   63  A    between atoms: _185  and  _187
REMARK   64  A    between atoms: _187  and  _188
REMARK   65  A    between atoms: _187  and  _190
REMARK   66  A    between atoms: _190  and  _191
REMARK   67  A    between atoms: _192  and  ZN_393
REMARK   68  A    between atoms: _196  and  _198
REMARK   69  A    between atoms: _198  and  _199
REMARK   70  A    between atoms: _198  and  _201
REMARK   71  A    between atoms: _201  and  _202
REMARK   72  A    between atoms: _205  and  _207
REMARK   73  A    between atoms: _207  and  _208
REMARK   74  A    between atoms: _207  and  _210
REMARK   75  A    between atoms: _213  and  _215
REMARK   76  A    between atoms: _215  and  _216
REMARK   77  A    between atoms: _215  and  _218
REMARK   78  A    between atoms: _218  and  _219
REMARK   79  A    between atoms: _224  and  _226
REMARK   80  A    between atoms: _226  and  _227
REMARK   81  A    between atoms: _226  and  _229
REMARK   82  A    between atoms: _229  and  _230
REMARK   83  A    between atoms: _236  and  _238
REMARK   84  A    between atoms: _238  and  _239
REMARK   85  A    between atoms: _238  and  _241
REMARK   86  A    between atoms: _244  and  _246
REMARK   87  A    between atoms: _246  and  _247
REMARK   88  A    between atoms: _246  and  _249
REMARK   89  A    between atoms: _249  and  _250
REMARK   90  A    between atoms: _253  and  _255
REMARK   91  A    between atoms: _255  and  _256
REMARK   92  A    between atoms: _259  and  _261
REMARK   93  A    between atoms: _261  and  _262
REMARK   94  A    between atoms: _261  and  _264
REMARK   95  A    between atoms: _267  and  _269
REMARK   96  A    between atoms: _269  and  _270
REMARK   97  A    between atoms: _269  and  _272
REMARK   98  A    between atoms: _272  and  _273
REMARK   99  A    between atoms: _275  and  _277
REMARK  100  A    between atoms: _277  and  _278
REMARK  101  A    between atoms: _277  and  _280
REMARK  102  A    between atoms: _280  and  _281
REMARK  103  A    between atoms: _284  and  _286
REMARK  104  A    between atoms: _286  and  _287
REMARK  105  A    between atoms: _286  and  _289
REMARK  106  A    between atoms: _289  and  _290
REMARK  107  A    between atoms: _293  and  _295
REMARK  108  A    between atoms: _295  and  _296
REMARK  109  A    between atoms: _295  and  _298
REMARK  110  A    between atoms: _298  and  _299
REMARK  111  A    between atoms: _303  and  _304
REMARK  112  A    between atoms: _310  and  _311
REMARK  113  A    between atoms: _316  and  _318
REMARK  114  A    between atoms: _318  and  _319
REMARK  115  A    between atoms: _318  and  _321
REMARK  116  A    between atoms: _321  and  _322
REMARK  117  A    between atoms: _325  and  _327
REMARK  118  A    between atoms: _327  and  _328
REMARK  119  A    between atoms: _327  and  _330
REMARK  120  A    between atoms: _330  and  _331
REMARK  121  A    between atoms: _334  and  _336
REMARK  122  A    between atoms: _336  and  _337
REMARK  123  A    between atoms: _336  and  _339
REMARK  124  A    between atoms: _341  and  _343
REMARK  125  A    between atoms: _343  and  _344
REMARK  126  A    between atoms: _343  and  _346
REMARK  127  A    between atoms: _349  and  _351
REMARK  128  A    between atoms: _351  and  _352
REMARK  129  A    between atoms: _351  and  _354
REMARK  130  A    between atoms: _354  and  _355
REMARK  131  A    between atoms: _365  and  _367
REMARK  132  A    between atoms: _367  and  _368
REMARK  133  A    between atoms: _367  and  _370
REMARK  134  A    between atoms: _370  and  _371
REMARK  135  A    between atoms: _376  and  _378
REMARK  136  A    between atoms: _378  and  _379
REMARK  137  A    between atoms: _378  and  _381
REMARK  138  A    between atoms: _381  and  _382
REMARK  139  A    between atoms: _382  and  _383
REMARK  140  A    between atoms: _383  and  _384
REMARK                            x       y       z     vdW  Elec       q    Type
REMARK                         _______ _______ _______ _____ _____    ______ ____
ROOT
ATOM      1  O   HOH     1      16.720  -0.999  11.961  0.00  0.00    +0.000 OA
ENDROOT
TORSDOF 0
REMARK  Name = ../refined-set-2016/4q87/4q87_pocket.pdb
REMARK  140 active torsions:
REMARK  status: ('A' for Active; 'I' for Inactive)
REMARK    1  A    between atoms: _1  and  _3
REMARK    2  A    between atoms: _3  and  _4
REMARK    3  A    between atoms: _3  and  _6
REMARK    4  A    between atoms: _6  and  _7
REMARK    5  A    between atoms: _17  and  _19
REMARK    6  A    between atoms: _19  and  _20
REMARK    7  A    between atoms: _19  and  _22
REMARK    8  A    between atoms: _22  and  _23
REMARK    9  A    between atoms: _28  and  _29
REMARK   10  A    between atoms: _31  and  _33
REMARK   11  A    between atoms: _33  and  _34
REMARK   12  A    between atoms: _33  and  _36
REMARK   13  A    between atoms: _36  and  _37
REMARK   14  A    between atoms: _39  and  _41
REMARK   15  A    between atoms: _41  and  _42
REMARK   16  A    between atoms: _41  and  _44
REMARK   17  A    between atoms: _44  and  _45
REMARK   18  A    between atoms: _50  and  _52
REMARK   19  A    between atoms: _52  and  _53
REMARK   20  A    between atoms: _52  and  _55
REMARK   21  A    between atoms: _55  and  _56
REMARK   22  A    between atoms: _61  and  _63
REMARK   23  A    between atoms: _63  and  _64
REMARK   24  A    between atoms: _67  and  _69
REMARK   25  A    between atoms: _69  and  _70
REMARK   26  A    between atoms: _69  and  _72
REMARK   27  A    between atoms: _72  and  _73
REMARK   28  A    between atoms: _78  and  _80
REMARK   29  A    between atoms: _80  and  _81
REMARK   30  A    between atoms: _80  and  _83
REMARK   31  A    between atoms: _83  and  _84
REMARK   32  A    between atoms: _87  and  _89
REMARK   33  A    between atoms: _89  and  _90
REMARK   34  A    between atoms: _89  and  _92
REMARK   35  A    between atoms: _92  and  _93
REMARK   36  A    between atoms: _93  and  _94
REMARK   37  A    between atoms: _99  and  _101
REMARK   38  A    between atoms: _101  and  _102
REMARK   39  A    between atoms: _101  and  _104
REMARK   40  A    between atoms: _104  and  _105
REMARK   41  A    between atoms: _111  and  _113
REMARK   42  A    between atoms: _124  and  _127
REMARK   43  A    between atoms: _127  and  _128
REMARK   44  A    between atoms: _136  and  _137
REMARK   45  A    between atoms: _145  and  _147
REMARK   46  A    between atoms: _147  and  _148
REMARK   47  A    between atoms: _147  and  _150
REMARK   48  A    between atoms: _150  and  _151
REMARK   49  A    between atoms: _151  and  _152
REMARK   50  A    between atoms: _155  and  _157
REMARK   51  A    between atoms: _157  and  _158
REMARK   52  A    between atoms: _157  and  _160
REMARK   53  A    between atoms: _160  and  _161
REMARK   54  A    between atoms: _166  and  _168
REMARK   55  A    between atoms: _168  and  _169
REMARK   56  A    between atoms: _168  and  _171
REMARK   57  A    between atoms: _171  and  _172
REMARK   58  A    between atoms: _172  and  _173
REMARK   59  A    between atoms: _176  and  _178
REMARK   60  A    between atoms: _178  and  _179
REMARK   61  A    between atoms: _178  and  _181
REMARK   62  A    between atoms: _181  and  _182
REMARK   63  A    between atoms: _185  and  _187
REMARK   64  A    between atoms: _187  and  _188
REMARK   65  A    between atoms: _187  and  _190
REMARK   66  A    between atoms: _190  and  _191
REMARK   67  A    between atoms: _192  and  ZN_393
REMARK   68  A    between atoms: _196  and  _198
REMARK   69  A    between atoms: _198  and  _199
REMARK   70  A    between atoms: _198  and  _201
REMARK   71  A    between atoms: _201  and  _202
REMARK   72  A    between atoms: _205  and  _207
REMARK   73  A    between atoms: _207  and  _208
REMARK   74  A    between atoms: _207  and  _210
REMARK   75  A    between atoms: _213  and  _215
REMARK   76  A    between atoms: _215  and  _216
REMARK   77  A    between atoms: _215  and  _218
REMARK   78  A    between atoms: _218  and  _219
REMARK   79  A    between atoms: _224  and  _226
REMARK   80  A    between atoms: _226  and  _227
REMARK   81  A    between atoms: _226  and  _229
REMARK   82  A    between atoms: _229  and  _230
REMARK   83  A    between atoms: _236  and  _238
REMARK   84  A    between atoms: _238  and  _239
REMARK   85  A    between atoms: _238  and  _241
REMARK   86  A    between atoms: _244  and  _246
REMARK   87  A    between atoms: _246  and  _247
REMARK   88  A    between atoms: _246  and  _249
REMARK   89  A    between atoms: _249  and  _250
REMARK   90  A    between atoms: _253  and  _255
REMARK   91  A    between atoms: _255  and  _256
REMARK   92  A    between atoms: _259  and  _261
REMARK   93  A    between atoms: _261  and  _262
REMARK   94  A    between atoms: _261  and  _264
REMARK   95  A    between atoms: _267  and  _269
REMARK   96  A    between atoms: _269  and  _270
REMARK   97  A    between atoms: _269  and  _272
REMARK   98  A    between atoms: _272  and  _273
REMARK   99  A    between atoms: _275  and  _277
REMARK  100  A    between atoms: _277  and  _278
REMARK  101  A    between atoms: _277  and  _280
REMARK  102  A    between atoms: _280  and  _281
REMARK  103  A    between atoms: _284  and  _286
REMARK  104  A    between atoms: _286  and  _287
REMARK  105  A    between atoms: _286  and  _289
REMARK  106  A    between atoms: _289  and  _290
REMARK  107  A    between atoms: _293  and  _295
REMARK  108  A    between atoms: _295  and  _296
REMARK  109  A    between atoms: _295  and  _298
REMARK  110  A    between atoms: _298  and  _299
REMARK  111  A    between atoms: _303  and  _304
REMARK  112  A    between atoms: _310  and  _311
REMARK  113  A    between atoms: _316  and  _318
REMARK  114  A    between atoms: _318  and  _319
REMARK  115  A    between atoms: _318  and  _321
REMARK  116  A    between atoms: _321  and  _322
REMARK  117  A    between atoms: _325  and  _327
REMARK  118  A    between atoms: _327  and  _328
REMARK  119  A    between atoms: _327  and  _330
REMARK  120  A    between atoms: _330  and  _331
REMARK  121  A    between atoms: _334  and  _336
REMARK  122  A    between atoms: _336  and  _337
REMARK  123  A    between atoms: _336  and  _339
REMARK  124  A    between atoms: _341  and  _343
REMARK  125  A    between atoms: _343  and  _344
REMARK  126  A    between atoms: _343  and  _346
REMARK  127  A    between atoms: _349  and  _351
REMARK  128  A    between atoms: _351  and  _352
REMARK  129  A    between atoms: _351  and  _354
REMARK  130  A    between atoms: _354  and  _355
REMARK  131  A    between atoms: _365  and  _367
REMARK  132  A    between atoms: _367  and  _368
REMARK  133  A    between atoms: _367  and  _370
REMARK  134  A    between atoms: _370  and  _371
REMARK  135  A    between atoms: _376  and  _378
REMARK  136  A    between atoms: _378  and  _379
REMARK  137  A    between atoms: _378  and  _381
REMARK  138  A    between atoms: _381  and  _382
REMARK  139  A    between atoms: _382  and  _383
REMARK  140  A    between atoms: _383  and  _384
REMARK                            x       y       z     vdW  Elec       q    Type
REMARK                         _______ _______ _______ _____ _____    ______ ____
ROOT
ATOM      1  O   HOH     1      18.565  -3.319  11.421  0.00  0.00    +0.000 OA
ENDROOT
TORSDOF 0
REMARK  Name = ../refined-set-2016/4q87/4q87_pocket.pdb
REMARK  140 active torsions:
REMARK  status: ('A' for Active; 'I' for Inactive)
REMARK    1  A    between atoms: _1  and  _3
REMARK    2  A    between atoms: _3  and  _4
REMARK    3  A    between atoms: _3  and  _6
REMARK    4  A    between atoms: _6  and  _7
REMARK    5  A    between atoms: _17  and  _19
REMARK    6  A    between atoms: _19  and  _20
REMARK    7  A    between atoms: _19  and  _22
REMARK    8  A    between atoms: _22  and  _23
REMARK    9  A    between atoms: _28  and  _29
REMARK   10  A    between atoms: _31  and  _33
REMARK   11  A    between atoms: _33  and  _34
REMARK   12  A    between atoms: _33  and  _36
REMARK   13  A    between atoms: _36  and  _37
REMARK   14  A    between atoms: _39  and  _41
REMARK   15  A    between atoms: _41  and  _42
REMARK   16  A    between atoms: _41  and  _44
REMARK   17  A    between atoms: _44  and  _45
REMARK   18  A    between atoms: _50  and  _52
REMARK   19  A    between atoms: _52  and  _53
REMARK   20  A    between atoms: _52  and  _55
REMARK   21  A    between atoms: _55  and  _56
REMARK   22  A    between atoms: _61  and  _63
REMARK   23  A    between atoms: _63  and  _64
REMARK   24  A    between atoms: _67  and  _69
REMARK   25  A    between atoms: _69  and  _70
REMARK   26  A    between atoms: _69  and  _72
REMARK   27  A    between atoms: _72  and  _73
REMARK   28  A    between atoms: _78  and  _80
REMARK   29  A    between atoms: _80  and  _81
REMARK   30  A    between atoms: _80  and  _83
REMARK   31  A    between atoms: _83  and  _84
REMARK   32  A    between atoms: _87  and  _89
REMARK   33  A    between atoms: _89  and  _90
REMARK   34  A    between atoms: _89  and  _92
REMARK   35  A    between atoms: _92  and  _93
REMARK   36  A    between atoms: _93  and  _94
REMARK   37  A    between atoms: _99  and  _101
REMARK   38  A    between atoms: _101  and  _102
REMARK   39  A    between atoms: _101  and  _104
REMARK   40  A    between atoms: _104  and  _105
REMARK   41  A    between atoms: _111  and  _113
REMARK   42  A    between atoms: _124  and  _127
REMARK   43  A    between atoms: _127  and  _128
REMARK   44  A    between atoms: _136  and  _137
REMARK   45  A    between atoms: _145  and  _147
REMARK   46  A    between atoms: _147  and  _148
REMARK   47  A    between atoms: _147  and  _150
REMARK   48  A    between atoms: _150  and  _151
REMARK   49  A    between atoms: _151  and  _152
REMARK   50  A    between atoms: _155  and  _157
REMARK   51  A    between atoms: _157  and  _158
REMARK   52  A    between atoms: _157  and  _160
REMARK   53  A    between atoms: _160  and  _161
REMARK   54  A    between atoms: _166  and  _168
REMARK   55  A    between atoms: _168  and  _169
REMARK   56  A    between atoms: _168  and  _171
REMARK   57  A    between atoms: _171  and  _172
REMARK   58  A    between atoms: _172  and  _173
REMARK   59  A    between atoms: _176  and  _178
REMARK   60  A    between atoms: _178  and  _179
REMARK   61  A    between atoms: _178  and  _181
REMARK   62  A    between atoms: _181  and  _182
REMARK   63  A    between atoms: _185  and  _187
REMARK   64  A    between atoms: _187  and  _188
REMARK   65  A    between atoms: _187  and  _190
REMARK   66  A    between atoms: _190  and  _191
REMARK   67  A    between atoms: _192  and  ZN_393
REMARK   68  A    between atoms: _196  and  _198
REMARK   69  A    between atoms: _198  and  _199
REMARK   70  A    between atoms: _198  and  _201
REMARK   71  A    between atoms: _201  and  _202
REMARK   72  A    between atoms: _205  and  _207
REMARK   73  A    between atoms: _207  and  _208
REMARK   74  A    between atoms: _207  and  _210
REMARK   75  A    between atoms: _213  and  _215
REMARK   76  A    between atoms: _215  and  _216
REMARK   77  A    between atoms: _215  and  _218
REMARK   78  A    between atoms: _218  and  _219
REMARK   79  A    between atoms: _224  and  _226
REMARK   80  A    between atoms: _226  and  _227
REMARK   81  A    between atoms: _226  and  _229
REMARK   82  A    between atoms: _229  and  _230
REMARK   83  A    between atoms: _236  and  _238
REMARK   84  A    between atoms: _238  and  _239
REMARK   85  A    between atoms: _238  and  _241
REMARK   86  A    between atoms: _244  and  _246
REMARK   87  A    between atoms: _246  and  _247
REMARK   88  A    between atoms: _246  and  _249
REMARK   89  A    between atoms: _249  and  _250
REMARK   90  A    between atoms: _253  and  _255
REMARK   91  A    between atoms: _255  and  _256
REMARK   92  A    between atoms: _259  and  _261
REMARK   93  A    between atoms: _261  and  _262
REMARK   94  A    between atoms: _261  and  _264
REMARK   95  A    between atoms: _267  and  _269
REMARK   96  A    between atoms: _269  and  _270
REMARK   97  A    between atoms: _269  and  _272
REMARK   98  A    between atoms: _272  and  _273
REMARK   99  A    between atoms: _275  and  _277
REMARK  100  A    between atoms: _277  and  _278
REMARK  101  A    between atoms: _277  and  _280
REMARK  102  A    between atoms: _280  and  _281
REMARK  103  A    between atoms: _284  and  _286
REMARK  104  A    between atoms: _286  and  _287
REMARK  105  A    between atoms: _286  and  _289
REMARK  106  A    between atoms: _289  and  _290
REMARK  107  A    between atoms: _293  and  _295
REMARK  108  A    between atoms: _295  and  _296
REMARK  109  A    between atoms: _295  and  _298
REMARK  110  A    between atoms: _298  and  _299
REMARK  111  A    between atoms: _303  and  _304
REMARK  112  A    between atoms: _310  and  _311
REMARK  113  A    between atoms: _316  and  _318
REMARK  114  A    between atoms: _318  and  _319
REMARK  115  A    between atoms: _318  and  _321
REMARK  116  A    between atoms: _321  and  _322
REMARK  117  A    between atoms: _325  and  _327
REMARK  118  A    between atoms: _327  and  _328
REMARK  119  A    between atoms: _327  and  _330
REMARK  120  A    between atoms: _330  and  _331
REMARK  121  A    between atoms: _334  and  _336
REMARK  122  A    between atoms: _336  and  _337
REMARK  123  A    between atoms: _336  and  _339
REMARK  124  A    between atoms: _341  and  _343
REMARK  125  A    between atoms: _343  and  _344
REMARK  126  A    between atoms: _343  and  _346
REMARK  127  A    between atoms: _349  and  _351
REMARK  128  A    between atoms: _351  and  _352
REMARK  129  A    between atoms: _351  and  _354
REMARK  130  A    between atoms: _354  and  _355
REMARK  131  A    between atoms: _365  and  _367
REMARK  132  A    between atoms: _367  and  _368
REMARK  133  A    between atoms: _367  and  _370
REMARK  134  A    between atoms: _370  and  _371
REMARK  135  A    between atoms: _376  and  _378
REMARK  136  A    between atoms: _378  and  _379
REMARK  137  A    between atoms: _378  and  _381
REMARK  138  A    between atoms: _381  and  _382
REMARK  139  A    between atoms: _382  and  _383
REMARK  140  A    between atoms: _383  and  _384
REMARK                            x       y       z     vdW  Elec       q    Type
REMARK                         _______ _______ _______ _____ _____    ______ ____
ROOT
ATOM      1  O   HOH     1      19.823  -4.253  15.767  0.00  0.00    +0.000 OA
ENDROOT
TORSDOF 0
REMARK  Name = ../refined-set-2016/4q87/4q87_pocket.pdb
REMARK  140 active torsions:
REMARK  status: ('A' for Active; 'I' for Inactive)
REMARK    1  A    between atoms: _1  and  _3
REMARK    2  A    between atoms: _3  and  _4
REMARK    3  A    between atoms: _3  and  _6
REMARK    4  A    between atoms: _6  and  _7
REMARK    5  A    between atoms: _17  and  _19
REMARK    6  A    between atoms: _19  and  _20
REMARK    7  A    between atoms: _19  and  _22
REMARK    8  A    between atoms: _22  and  _23
REMARK    9  A    between atoms: _28  and  _29
REMARK   10  A    between atoms: _31  and  _33
REMARK   11  A    between atoms: _33  and  _34
REMARK   12  A    between atoms: _33  and  _36
REMARK   13  A    between atoms: _36  and  _37
REMARK   14  A    between atoms: _39  and  _41
REMARK   15  A    between atoms: _41  and  _42
REMARK   16  A    between atoms: _41  and  _44
REMARK   17  A    between atoms: _44  and  _45
REMARK   18  A    between atoms: _50  and  _52
REMARK   19  A    between atoms: _52  and  _53
REMARK   20  A    between atoms: _52  and  _55
REMARK   21  A    between atoms: _55  and  _56
REMARK   22  A    between atoms: _61  and  _63
REMARK   23  A    between atoms: _63  and  _64
REMARK   24  A    between atoms: _67  and  _69
REMARK   25  A    between atoms: _69  and  _70
REMARK   26  A    between atoms: _69  and  _72
REMARK   27  A    between atoms: _72  and  _73
REMARK   28  A    between atoms: _78  and  _80
REMARK   29  A    between atoms: _80  and  _81
REMARK   30  A    between atoms: _80  and  _83
REMARK   31  A    between atoms: _83  and  _84
REMARK   32  A    between atoms: _87  and  _89
REMARK   33  A    between atoms: _89  and  _90
REMARK   34  A    between atoms: _89  and  _92
REMARK   35  A    between atoms: _92  and  _93
REMARK   36  A    between atoms: _93  and  _94
REMARK   37  A    between atoms: _99  and  _101
REMARK   38  A    between atoms: _101  and  _102
REMARK   39  A    between atoms: _101  and  _104
REMARK   40  A    between atoms: _104  and  _105
REMARK   41  A    between atoms: _111  and  _113
REMARK   42  A    between atoms: _124  and  _127
REMARK   43  A    between atoms: _127  and  _128
REMARK   44  A    between atoms: _136  and  _137
REMARK   45  A    between atoms: _145  and  _147
REMARK   46  A    between atoms: _147  and  _148
REMARK   47  A    between atoms: _147  and  _150
REMARK   48  A    between atoms: _150  and  _151
REMARK   49  A    between atoms: _151  and  _152
REMARK   50  A    between atoms: _155  and  _157
REMARK   51  A    between atoms: _157  and  _158
REMARK   52  A    between atoms: _157  and  _160
REMARK   53  A    between atoms: _160  and  _161
REMARK   54  A    between atoms: _166  and  _168
REMARK   55  A    between atoms: _168  and  _169
REMARK   56  A    between atoms: _168  and  _171
REMARK   57  A    between atoms: _171  and  _172
REMARK   58  A    between atoms: _172  and  _173
REMARK   59  A    between atoms: _176  and  _178
REMARK   60  A    between atoms: _178  and  _179
REMARK   61  A    between atoms: _178  and  _181
REMARK   62  A    between atoms: _181  and  _182
REMARK   63  A    between atoms: _185  and  _187
REMARK   64  A    between atoms: _187  and  _188
REMARK   65  A    between atoms: _187  and  _190
REMARK   66  A    between atoms: _190  and  _191
REMARK   67  A    between atoms: _192  and  ZN_393
REMARK   68  A    between atoms: _196  and  _198
REMARK   69  A    between atoms: _198  and  _199
REMARK   70  A    between atoms: _198  and  _201
REMARK   71  A    between atoms: _201  and  _202
REMARK   72  A    between atoms: _205  and  _207
REMARK   73  A    between atoms: _207  and  _208
REMARK   74  A    between atoms: _207  and  _210
REMARK   75  A    between atoms: _213  and  _215
REMARK   76  A    between atoms: _215  and  _216
REMARK   77  A    between atoms: _215  and  _218
REMARK   78  A    between atoms: _218  and  _219
REMARK   79  A    between atoms: _224  and  _226
REMARK   80  A    between atoms: _226  and  _227
REMARK   81  A    between atoms: _226  and  _229
REMARK   82  A    between atoms: _229  and  _230
REMARK   83  A    between atoms: _236  and  _238
REMARK   84  A    between atoms: _238  and  _239
REMARK   85  A    between atoms: _238  and  _241
REMARK   86  A    between atoms: _244  and  _246
REMARK   87  A    between atoms: _246  and  _247
REMARK   88  A    between atoms: _246  and  _249
REMARK   89  A    between atoms: _249  and  _250
REMARK   90  A    between atoms: _253  and  _255
REMARK   91  A    between atoms: _255  and  _256
REMARK   92  A    between atoms: _259  and  _261
REMARK   93  A    between atoms: _261  and  _262
REMARK   94  A    between atoms: _261  and  _264
REMARK   95  A    between atoms: _267  and  _269
REMARK   96  A    between atoms: _269  and  _270
REMARK   97  A    between atoms: _269  and  _272
REMARK   98  A    between atoms: _272  and  _273
REMARK   99  A    between atoms: _275  and  _277
REMARK  100  A    between atoms: _277  and  _278
REMARK  101  A    between atoms: _277  and  _280
REMARK  102  A    between atoms: _280  and  _281
REMARK  103  A    between atoms: _284  and  _286
REMARK  104  A    between atoms: _286  and  _287
REMARK  105  A    between atoms: _286  and  _289
REMARK  106  A    between atoms: _289  and  _290
REMARK  107  A    between atoms: _293  and  _295
REMARK  108  A    between atoms: _295  and  _296
REMARK  109  A    between atoms: _295  and  _298
REMARK  110  A    between atoms: _298  and  _299
REMARK  111  A    between atoms: _303  and  _304
REMARK  112  A    between atoms: _310  and  _311
REMARK  113  A    between atoms: _316  and  _318
REMARK  114  A    between atoms: _318  and  _319
REMARK  115  A    between atoms: _318  and  _321
REMARK  116  A    between atoms: _321  and  _322
REMARK  117  A    between atoms: _325  and  _327
REMARK  118  A    between atoms: _327  and  _328
REMARK  119  A    between atoms: _327  and  _330
REMARK  120  A    between atoms: _330  and  _331
REMARK  121  A    between atoms: _334  and  _336
REMARK  122  A    between atoms: _336  and  _337
REMARK  123  A    between atoms: _336  and  _339
REMARK  124  A    between atoms: _341  and  _343
REMARK  125  A    between atoms: _343  and  _344
REMARK  126  A    between atoms: _343  and  _346
REMARK  127  A    between atoms: _349  and  _351
REMARK  128  A    between atoms: _351  and  _352
REMARK  129  A    between atoms: _351  and  _354
REMARK  130  A    between atoms: _354  and  _355
REMARK  131  A    between atoms: _365  and  _367
REMARK  132  A    between atoms: _367  and  _368
REMARK  133  A    between atoms: _367  and  _370
REMARK  134  A    between atoms: _370  and  _371
REMARK  135  A    between atoms: _376  and  _378
REMARK  136  A    between atoms: _378  and  _379
REMARK  137  A    between atoms: _378  and  _381
REMARK  138  A    between atoms: _381  and  _382
REMARK  139  A    between atoms: _382  and  _383
REMARK  140  A    between atoms: _383  and  _384
REMARK                            x       y       z     vdW  Elec       q    Type
REMARK                         _______ _______ _______ _____ _____    ______ ____
ROOT
ATOM      1  O   HOH     1      20.359   3.414   9.425  0.00  0.00    +0.000 OA
ENDROOT
TORSDOF 0
REMARK  Name = ../refined-set-2016/4q87/4q87_pocket.pdb
REMARK  140 active torsions:
REMARK  status: ('A' for Active; 'I' for Inactive)
REMARK    1  A    between atoms: _1  and  _3
REMARK    2  A    between atoms: _3  and  _4
REMARK    3  A    between atoms: _3  and  _6
REMARK    4  A    between atoms: _6  and  _7
REMARK    5  A    between atoms: _17  and  _19
REMARK    6  A    between atoms: _19  and  _20
REMARK    7  A    between atoms: _19  and  _22
REMARK    8  A    between atoms: _22  and  _23
REMARK    9  A    between atoms: _28  and  _29
REMARK   10  A    between atoms: _31  and  _33
REMARK   11  A    between atoms: _33  and  _34
REMARK   12  A    between atoms: _33  and  _36
REMARK   13  A    between atoms: _36  and  _37
REMARK   14  A    between atoms: _39  and  _41
REMARK   15  A    between atoms: _41  and  _42
REMARK   16  A    between atoms: _41  and  _44
REMARK   17  A    between atoms: _44  and  _45
REMARK   18  A    between atoms: _50  and  _52
REMARK   19  A    between atoms: _52  and  _53
REMARK   20  A    between atoms: _52  and  _55
REMARK   21  A    between atoms: _55  and  _56
REMARK   22  A    between atoms: _61  and  _63
REMARK   23  A    between atoms: _63  and  _64
REMARK   24  A    between atoms: _67  and  _69
REMARK   25  A    between atoms: _69  and  _70
REMARK   26  A    between atoms: _69  and  _72
REMARK   27  A    between atoms: _72  and  _73
REMARK   28  A    between atoms: _78  and  _80
REMARK   29  A    between atoms: _80  and  _81
REMARK   30  A    between atoms: _80  and  _83
REMARK   31  A    between atoms: _83  and  _84
REMARK   32  A    between atoms: _87  and  _89
REMARK   33  A    between atoms: _89  and  _90
REMARK   34  A    between atoms: _89  and  _92
REMARK   35  A    between atoms: _92  and  _93
REMARK   36  A    between atoms: _93  and  _94
REMARK   37  A    between atoms: _99  and  _101
REMARK   38  A    between atoms: _101  and  _102
REMARK   39  A    between atoms: _101  and  _104
REMARK   40  A    between atoms: _104  and  _105
REMARK   41  A    between atoms: _111  and  _113
REMARK   42  A    between atoms: _124  and  _127
REMARK   43  A    between atoms: _127  and  _128
REMARK   44  A    between atoms: _136  and  _137
REMARK   45  A    between atoms: _145  and  _147
REMARK   46  A    between atoms: _147  and  _148
REMARK   47  A    between atoms: _147  and  _150
REMARK   48  A    between atoms: _150  and  _151
REMARK   49  A    between atoms: _151  and  _152
REMARK   50  A    between atoms: _155  and  _157
REMARK   51  A    between atoms: _157  and  _158
REMARK   52  A    between atoms: _157  and  _160
REMARK   53  A    between atoms: _160  and  _161
REMARK   54  A    between atoms: _166  and  _168
REMARK   55  A    between atoms: _168  and  _169
REMARK   56  A    between atoms: _168  and  _171
REMARK   57  A    between atoms: _171  and  _172
REMARK   58  A    between atoms: _172  and  _173
REMARK   59  A    between atoms: _176  and  _178
REMARK   60  A    between atoms: _178  and  _179
REMARK   61  A    between atoms: _178  and  _181
REMARK   62  A    between atoms: _181  and  _182
REMARK   63  A    between atoms: _185  and  _187
REMARK   64  A    between atoms: _187  and  _188
REMARK   65  A    between atoms: _187  and  _190
REMARK   66  A    between atoms: _190  and  _191
REMARK   67  A    between atoms: _192  and  ZN_393
REMARK   68  A    between atoms: _196  and  _198
REMARK   69  A    between atoms: _198  and  _199
REMARK   70  A    between atoms: _198  and  _201
REMARK   71  A    between atoms: _201  and  _202
REMARK   72  A    between atoms: _205  and  _207
REMARK   73  A    between atoms: _207  and  _208
REMARK   74  A    between atoms: _207  and  _210
REMARK   75  A    between atoms: _213  and  _215
REMARK   76  A    between atoms: _215  and  _216
REMARK   77  A    between atoms: _215  and  _218
REMARK   78  A    between atoms: _218  and  _219
REMARK   79  A    between atoms: _224  and  _226
REMARK   80  A    between atoms: _226  and  _227
REMARK   81  A    between atoms: _226  and  _229
REMARK   82  A    between atoms: _229  and  _230
REMARK   83  A    between atoms: _236  and  _238
REMARK   84  A    between atoms: _238  and  _239
REMARK   85  A    between atoms: _238  and  _241
REMARK   86  A    between atoms: _244  and  _246
REMARK   87  A    between atoms: _246  and  _247
REMARK   88  A    between atoms: _246  and  _249
REMARK   89  A    between atoms: _249  and  _250
REMARK   90  A    between atoms: _253  and  _255
REMARK   91  A    between atoms: _255  and  _256
REMARK   92  A    between atoms: _259  and  _261
REMARK   93  A    between atoms: _261  and  _262
REMARK   94  A    between atoms: _261  and  _264
REMARK   95  A    between atoms: _267  and  _269
REMARK   96  A    between atoms: _269  and  _270
REMARK   97  A    between atoms: _269  and  _272
REMARK   98  A    between atoms: _272  and  _273
REMARK   99  A    between atoms: _275  and  _277
REMARK  100  A    between atoms: _277  and  _278
REMARK  101  A    between atoms: _277  and  _280
REMARK  102  A    between atoms: _280  and  _281
REMARK  103  A    between atoms: _284  and  _286
REMARK  104  A    between atoms: _286  and  _287
REMARK  105  A    between atoms: _286  and  _289
REMARK  106  A    between atoms: _289  and  _290
REMARK  107  A    between atoms: _293  and  _295
REMARK  108  A    between atoms: _295  and  _296
REMARK  109  A    between atoms: _295  and  _298
REMARK  110  A    between atoms: _298  and  _299
REMARK  111  A    between atoms: _303  and  _304
REMARK  112  A    between atoms: _310  and  _311
REMARK  113  A    between atoms: _316  and  _318
REMARK  114  A    between atoms: _318  and  _319
REMARK  115  A    between atoms: _318  and  _321
REMARK  116  A    between atoms: _321  and  _322
REMARK  117  A    between atoms: _325  and  _327
REMARK  118  A    between atoms: _327  and  _328
REMARK  119  A    between atoms: _327  and  _330
REMARK  120  A    between atoms: _330  and  _331
REMARK  121  A    between atoms: _334  and  _336
REMARK  122  A    between atoms: _336  and  _337
REMARK  123  A    between atoms: _336  and  _339
REMARK  124  A    between atoms: _341  and  _343
REMARK  125  A    between atoms: _343  and  _344
REMARK  126  A    between atoms: _343  and  _346
REMARK  127  A    between atoms: _349  and  _351
REMARK  128  A    between atoms: _351  and  _352
REMARK  129  A    between atoms: _351  and  _354
REMARK  130  A    between atoms: _354  and  _355
REMARK  131  A    between atoms: _365  and  _367
REMARK  132  A    between atoms: _367  and  _368
REMARK  133  A    between atoms: _367  and  _370
REMARK  134  A    between atoms: _370  and  _371
REMARK  135  A    between atoms: _376  and  _378
REMARK  136  A    between atoms: _378  and  _379
REMARK  137  A    between atoms: _378  and  _381
REMARK  138  A    between atoms: _381  and  _382
REMARK  139  A    between atoms: _382  and  _383
REMARK  140  A    between atoms: _383  and  _384
REMARK                            x       y       z     vdW  Elec       q    Type
REMARK                         _______ _______ _______ _____ _____    ______ ____
ROOT
ATOM      1  O   HOH     1      14.237   5.981   6.262  0.00  0.00    +0.000 OA
ENDROOT
TORSDOF 0
REMARK  Name = ../refined-set-2016/4q87/4q87_pocket.pdb
REMARK  140 active torsions:
REMARK  status: ('A' for Active; 'I' for Inactive)
REMARK    1  A    between atoms: _1  and  _3
REMARK    2  A    between atoms: _3  and  _4
REMARK    3  A    between atoms: _3  and  _6
REMARK    4  A    between atoms: _6  and  _7
REMARK    5  A    between atoms: _17  and  _19
REMARK    6  A    between atoms: _19  and  _20
REMARK    7  A    between atoms: _19  and  _22
REMARK    8  A    between atoms: _22  and  _23
REMARK    9  A    between atoms: _28  and  _29
REMARK   10  A    between atoms: _31  and  _33
REMARK   11  A    between atoms: _33  and  _34
REMARK   12  A    between atoms: _33  and  _36
REMARK   13  A    between atoms: _36  and  _37
REMARK   14  A    between atoms: _39  and  _41
REMARK   15  A    between atoms: _41  and  _42
REMARK   16  A    between atoms: _41  and  _44
REMARK   17  A    between atoms: _44  and  _45
REMARK   18  A    between atoms: _50  and  _52
REMARK   19  A    between atoms: _52  and  _53
REMARK   20  A    between atoms: _52  and  _55
REMARK   21  A    between atoms: _55  and  _56
REMARK   22  A    between atoms: _61  and  _63
REMARK   23  A    between atoms: _63  and  _64
REMARK   24  A    between atoms: _67  and  _69
REMARK   25  A    between atoms: _69  and  _70
REMARK   26  A    between atoms: _69  and  _72
REMARK   27  A    between atoms: _72  and  _73
REMARK   28  A    between atoms: _78  and  _80
REMARK   29  A    between atoms: _80  and  _81
REMARK   30  A    between atoms: _80  and  _83
REMARK   31  A    between atoms: _83  and  _84
REMARK   32  A    between atoms: _87  and  _89
REMARK   33  A    between atoms: _89  and  _90
REMARK   34  A    between atoms: _89  and  _92
REMARK   35  A    between atoms: _92  and  _93
REMARK   36  A    between atoms: _93  and  _94
REMARK   37  A    between atoms: _99  and  _101
REMARK   38  A    between atoms: _101  and  _102
REMARK   39  A    between atoms: _101  and  _104
REMARK   40  A    between atoms: _104  and  _105
REMARK   41  A    between atoms: _111  and  _113
REMARK   42  A    between atoms: _124  and  _127
REMARK   43  A    between atoms: _127  and  _128
REMARK   44  A    between atoms: _136  and  _137
REMARK   45  A    between atoms: _145  and  _147
REMARK   46  A    between atoms: _147  and  _148
REMARK   47  A    between atoms: _147  and  _150
REMARK   48  A    between atoms: _150  and  _151
REMARK   49  A    between atoms: _151  and  _152
REMARK   50  A    between atoms: _155  and  _157
REMARK   51  A    between atoms: _157  and  _158
REMARK   52  A    between atoms: _157  and  _160
REMARK   53  A    between atoms: _160  and  _161
REMARK   54  A    between atoms: _166  and  _168
REMARK   55  A    between atoms: _168  and  _169
REMARK   56  A    between atoms: _168  and  _171
REMARK   57  A    between atoms: _171  and  _172
REMARK   58  A    between atoms: _172  and  _173
REMARK   59  A    between atoms: _176  and  _178
REMARK   60  A    between atoms: _178  and  _179
REMARK   61  A    between atoms: _178  and  _181
REMARK   62  A    between atoms: _181  and  _182
REMARK   63  A    between atoms: _185  and  _187
REMARK   64  A    between atoms: _187  and  _188
REMARK   65  A    between atoms: _187  and  _190
REMARK   66  A    between atoms: _190  and  _191
REMARK   67  A    between atoms: _192  and  ZN_393
REMARK   68  A    between atoms: _196  and  _198
REMARK   69  A    between atoms: _198  and  _199
REMARK   70  A    between atoms: _198  and  _201
REMARK   71  A    between atoms: _201  and  _202
REMARK   72  A    between atoms: _205  and  _207
REMARK   73  A    between atoms: _207  and  _208
REMARK   74  A    between atoms: _207  and  _210
REMARK   75  A    between atoms: _213  and  _215
REMARK   76  A    between atoms: _215  and  _216
REMARK   77  A    between atoms: _215  and  _218
REMARK   78  A    between atoms: _218  and  _219
REMARK   79  A    between atoms: _224  and  _226
REMARK   80  A    between atoms: _226  and  _227
REMARK   81  A    between atoms: _226  and  _229
REMARK   82  A    between atoms: _229  and  _230
REMARK   83  A    between atoms: _236  and  _238
REMARK   84  A    between atoms: _238  and  _239
REMARK   85  A    between atoms: _238  and  _241
REMARK   86  A    between atoms: _244  and  _246
REMARK   87  A    between atoms: _246  and  _247
REMARK   88  A    between atoms: _246  and  _249
REMARK   89  A    between atoms: _249  and  _250
REMARK   90  A    between atoms: _253  and  _255
REMARK   91  A    between atoms: _255  and  _256
REMARK   92  A    between atoms: _259  and  _261
REMARK   93  A    between atoms: _261  and  _262
REMARK   94  A    between atoms: _261  and  _264
REMARK   95  A    between atoms: _267  and  _269
REMARK   96  A    between atoms: _269  and  _270
REMARK   97  A    between atoms: _269  and  _272
REMARK   98  A    between atoms: _272  and  _273
REMARK   99  A    between atoms: _275  and  _277
REMARK  100  A    between atoms: _277  and  _278
REMARK  101  A    between atoms: _277  and  _280
REMARK  102  A    between atoms: _280  and  _281
REMARK  103  A    between atoms: _284  and  _286
REMARK  104  A    between atoms: _286  and  _287
REMARK  105  A    between atoms: _286  and  _289
REMARK  106  A    between atoms: _289  and  _290
REMARK  107  A    between atoms: _293  and  _295
REMARK  108  A    between atoms: _295  and  _296
REMARK  109  A    between atoms: _295  and  _298
REMARK  110  A    between atoms: _298  and  _299
REMARK  111  A    between atoms: _303  and  _304
REMARK  112  A    between atoms: _310  and  _311
REMARK  113  A    between atoms: _316  and  _318
REMARK  114  A    between atoms: _318  and  _319
REMARK  115  A    between atoms: _318  and  _321
REMARK  116  A    between atoms: _321  and  _322
REMARK  117  A    between atoms: _325  and  _327
REMARK  118  A    between atoms: _327  and  _328
REMARK  119  A    between atoms: _327  and  _330
REMARK  120  A    between atoms: _330  and  _331
REMARK  121  A    between atoms: _334  and  _336
REMARK  122  A    between atoms: _336  and  _337
REMARK  123  A    between atoms: _336  and  _339
REMARK  124  A    between atoms: _341  and  _343
REMARK  125  A    between atoms: _343  and  _344
REMARK  126  A    between atoms: _343  and  _346
REMARK  127  A    between atoms: _349  and  _351
REMARK  128  A    between atoms: _351  and  _352
REMARK  129  A    between atoms: _351  and  _354
REMARK  130  A    between atoms: _354  and  _355
REMARK  131  A    between atoms: _365  and  _367
REMARK  132  A    between atoms: _367  and  _368
REMARK  133  A    between atoms: _367  and  _370
REMARK  134  A    between atoms: _370  and  _371
REMARK  135  A    between atoms: _376  and  _378
REMARK  136  A    between atoms: _378  and  _379
REMARK  137  A    between atoms: _378  and  _381
REMARK  138  A    between atoms: _381  and  _382
REMARK  139  A    between atoms: _382  and  _383
REMARK  140  A    between atoms: _383  and  _384
REMARK                            x       y       z     vdW  Elec       q    Type
REMARK                         _______ _______ _______ _____ _____    ______ ____
ROOT
ATOM      1  O   HOH     1      16.706   3.487  10.343  0.00  0.00    +0.000 OA
ENDROOT
TORSDOF 0
REMARK  Name = ../refined-set-2016/4q87/4q87_pocket.pdb
REMARK  140 active torsions:
REMARK  status: ('A' for Active; 'I' for Inactive)
REMARK    1  A    between atoms: _1  and  _3
REMARK    2  A    between atoms: _3  and  _4
REMARK    3  A    between atoms: _3  and  _6
REMARK    4  A    between atoms: _6  and  _7
REMARK    5  A    between atoms: _17  and  _19
REMARK    6  A    between atoms: _19  and  _20
REMARK    7  A    between atoms: _19  and  _22
REMARK    8  A    between atoms: _22  and  _23
REMARK    9  A    between atoms: _28  and  _29
REMARK   10  A    between atoms: _31  and  _33
REMARK   11  A    between atoms: _33  and  _34
REMARK   12  A    between atoms: _33  and  _36
REMARK   13  A    between atoms: _36  and  _37
REMARK   14  A    between atoms: _39  and  _41
REMARK   15  A    between atoms: _41  and  _42
REMARK   16  A    between atoms: _41  and  _44
REMARK   17  A    between atoms: _44  and  _45
REMARK   18  A    between atoms: _50  and  _52
REMARK   19  A    between atoms: _52  and  _53
REMARK   20  A    between atoms: _52  and  _55
REMARK   21  A    between atoms: _55  and  _56
REMARK   22  A    between atoms: _61  and  _63
REMARK   23  A    between atoms: _63  and  _64
REMARK   24  A    between atoms: _67  and  _69
REMARK   25  A    between atoms: _69  and  _70
REMARK   26  A    between atoms: _69  and  _72
REMARK   27  A    between atoms: _72  and  _73
REMARK   28  A    between atoms: _78  and  _80
REMARK   29  A    between atoms: _80  and  _81
REMARK   30  A    between atoms: _80  and  _83
REMARK   31  A    between atoms: _83  and  _84
REMARK   32  A    between atoms: _87  and  _89
REMARK   33  A    between atoms: _89  and  _90
REMARK   34  A    between atoms: _89  and  _92
REMARK   35  A    between atoms: _92  and  _93
REMARK   36  A    between atoms: _93  and  _94
REMARK   37  A    between atoms: _99  and  _101
REMARK   38  A    between atoms: _101  and  _102
REMARK   39  A    between atoms: _101  and  _104
REMARK   40  A    between atoms: _104  and  _105
REMARK   41  A    between atoms: _111  and  _113
REMARK   42  A    between atoms: _124  and  _127
REMARK   43  A    between atoms: _127  and  _128
REMARK   44  A    between atoms: _136  and  _137
REMARK   45  A    between atoms: _145  and  _147
REMARK   46  A    between atoms: _147  and  _148
REMARK   47  A    between atoms: _147  and  _150
REMARK   48  A    between atoms: _150  and  _151
REMARK   49  A    between atoms: _151  and  _152
REMARK   50  A    between atoms: _155  and  _157
REMARK   51  A    between atoms: _157  and  _158
REMARK   52  A    between atoms: _157  and  _160
REMARK   53  A    between atoms: _160  and  _161
REMARK   54  A    between atoms: _166  and  _168
REMARK   55  A    between atoms: _168  and  _169
REMARK   56  A    between atoms: _168  and  _171
REMARK   57  A    between atoms: _171  and  _172
REMARK   58  A    between atoms: _172  and  _173
REMARK   59  A    between atoms: _176  and  _178
REMARK   60  A    between atoms: _178  and  _179
REMARK   61  A    between atoms: _178  and  _181
REMARK   62  A    between atoms: _181  and  _182
REMARK   63  A    between atoms: _185  and  _187
REMARK   64  A    between atoms: _187  and  _188
REMARK   65  A    between atoms: _187  and  _190
REMARK   66  A    between atoms: _190  and  _191
REMARK   67  A    between atoms: _192  and  ZN_393
REMARK   68  A    between atoms: _196  and  _198
REMARK   69  A    between atoms: _198  and  _199
REMARK   70  A    between atoms: _198  and  _201
REMARK   71  A    between atoms: _201  and  _202
REMARK   72  A    between atoms: _205  and  _207
REMARK   73  A    between atoms: _207  and  _208
REMARK   74  A    between atoms: _207  and  _210
REMARK   75  A    between atoms: _213  and  _215
REMARK   76  A    between atoms: _215  and  _216
REMARK   77  A    between atoms: _215  and  _218
REMARK   78  A    between atoms: _218  and  _219
REMARK   79  A    between atoms: _224  and  _226
REMARK   80  A    between atoms: _226  and  _227
REMARK   81  A    between atoms: _226  and  _229
REMARK   82  A    between atoms: _229  and  _230
REMARK   83  A    between atoms: _236  and  _238
REMARK   84  A    between atoms: _238  and  _239
REMARK   85  A    between atoms: _238  and  _241
REMARK   86  A    between atoms: _244  and  _246
REMARK   87  A    between atoms: _246  and  _247
REMARK   88  A    between atoms: _246  and  _249
REMARK   89  A    between atoms: _249  and  _250
REMARK   90  A    between atoms: _253  and  _255
REMARK   91  A    between atoms: _255  and  _256
REMARK   92  A    between atoms: _259  and  _261
REMARK   93  A    between atoms: _261  and  _262
REMARK   94  A    between atoms: _261  and  _264
REMARK   95  A    between atoms: _267  and  _269
REMARK   96  A    between atoms: _269  and  _270
REMARK   97  A    between atoms: _269  and  _272
REMARK   98  A    between atoms: _272  and  _273
REMARK   99  A    between atoms: _275  and  _277
REMARK  100  A    between atoms: _277  and  _278
REMARK  101  A    between atoms: _277  and  _280
REMARK  102  A    between atoms: _280  and  _281
REMARK  103  A    between atoms: _284  and  _286
REMARK  104  A    between atoms: _286  and  _287
REMARK  105  A    between atoms: _286  and  _289
REMARK  106  A    between atoms: _289  and  _290
REMARK  107  A    between atoms: _293  and  _295
REMARK  108  A    between atoms: _295  and  _296
REMARK  109  A    between atoms: _295  and  _298
REMARK  110  A    between atoms: _298  and  _299
REMARK  111  A    between atoms: _303  and  _304
REMARK  112  A    between atoms: _310  and  _311
REMARK  113  A    between atoms: _316  and  _318
REMARK  114  A    between atoms: _318  and  _319
REMARK  115  A    between atoms: _318  and  _321
REMARK  116  A    between atoms: _321  and  _322
REMARK  117  A    between atoms: _325  and  _327
REMARK  118  A    between atoms: _327  and  _328
REMARK  119  A    between atoms: _327  and  _330
REMARK  120  A    between atoms: _330  and  _331
REMARK  121  A    between atoms: _334  and  _336
REMARK  122  A    between atoms: _336  and  _337
REMARK  123  A    between atoms: _336  and  _339
REMARK  124  A    between atoms: _341  and  _343
REMARK  125  A    between atoms: _343  and  _344
REMARK  126  A    between atoms: _343  and  _346
REMARK  127  A    between atoms: _349  and  _351
REMARK  128  A    between atoms: _351  and  _352
REMARK  129  A    between atoms: _351  and  _354
REMARK  130  A    between atoms: _354  and  _355
REMARK  131  A    between atoms: _365  and  _367
REMARK  132  A    between atoms: _367  and  _368
REMARK  133  A    between atoms: _367  and  _370
REMARK  134  A    between atoms: _370  and  _371
REMARK  135  A    between atoms: _376  and  _378
REMARK  136  A    between atoms: _378  and  _379
REMARK  137  A    between atoms: _378  and  _381
REMARK  138  A    between atoms: _381  and  _382
REMARK  139  A    between atoms: _382  and  _383
REMARK  140  A    between atoms: _383  and  _384
REMARK                            x       y       z     vdW  Elec       q    Type
REMARK                         _______ _______ _______ _____ _____    ______ ____
ROOT
ATOM      1  O   HOH     1      13.053   7.434   8.374  0.00  0.00    +0.000 OA
ENDROOT
TORSDOF 0
REMARK  Name = ../refined-set-2016/4q87/4q87_pocket.pdb
REMARK  140 active torsions:
REMARK  status: ('A' for Active; 'I' for Inactive)
REMARK    1  A    between atoms: _1  and  _3
REMARK    2  A    between atoms: _3  and  _4
REMARK    3  A    between atoms: _3  and  _6
REMARK    4  A    between atoms: _6  and  _7
REMARK    5  A    between atoms: _17  and  _19
REMARK    6  A    between atoms: _19  and  _20
REMARK    7  A    between atoms: _19  and  _22
REMARK    8  A    between atoms: _22  and  _23
REMARK    9  A    between atoms: _28  and  _29
REMARK   10  A    between atoms: _31  and  _33
REMARK   11  A    between atoms: _33  and  _34
REMARK   12  A    between atoms: _33  and  _36
REMARK   13  A    between atoms: _36  and  _37
REMARK   14  A    between atoms: _39  and  _41
REMARK   15  A    between atoms: _41  and  _42
REMARK   16  A    between atoms: _41  and  _44
REMARK   17  A    between atoms: _44  and  _45
REMARK   18  A    between atoms: _50  and  _52
REMARK   19  A    between atoms: _52  and  _53
REMARK   20  A    between atoms: _52  and  _55
REMARK   21  A    between atoms: _55  and  _56
REMARK   22  A    between atoms: _61  and  _63
REMARK   23  A    between atoms: _63  and  _64
REMARK   24  A    between atoms: _67  and  _69
REMARK   25  A    between atoms: _69  and  _70
REMARK   26  A    between atoms: _69  and  _72
REMARK   27  A    between atoms: _72  and  _73
REMARK   28  A    between atoms: _78  and  _80
REMARK   29  A    between atoms: _80  and  _81
REMARK   30  A    between atoms: _80  and  _83
REMARK   31  A    between atoms: _83  and  _84
REMARK   32  A    between atoms: _87  and  _89
REMARK   33  A    between atoms: _89  and  _90
REMARK   34  A    between atoms: _89  and  _92
REMARK   35  A    between atoms: _92  and  _93
REMARK   36  A    between atoms: _93  and  _94
REMARK   37  A    between atoms: _99  and  _101
REMARK   38  A    between atoms: _101  and  _102
REMARK   39  A    between atoms: _101  and  _104
REMARK   40  A    between atoms: _104  and  _105
REMARK   41  A    between atoms: _111  and  _113
REMARK   42  A    between atoms: _124  and  _127
REMARK   43  A    between atoms: _127  and  _128
REMARK   44  A    between atoms: _136  and  _137
REMARK   45  A    between atoms: _145  and  _147
REMARK   46  A    between atoms: _147  and  _148
REMARK   47  A    between atoms: _147  and  _150
REMARK   48  A    between atoms: _150  and  _151
REMARK   49  A    between atoms: _151  and  _152
REMARK   50  A    between atoms: _155  and  _157
REMARK   51  A    between atoms: _157  and  _158
REMARK   52  A    between atoms: _157  and  _160
REMARK   53  A    between atoms: _160  and  _161
REMARK   54  A    between atoms: _166  and  _168
REMARK   55  A    between atoms: _168  and  _169
REMARK   56  A    between atoms: _168  and  _171
REMARK   57  A    between atoms: _171  and  _172
REMARK   58  A    between atoms: _172  and  _173
REMARK   59  A    between atoms: _176  and  _178
REMARK   60  A    between atoms: _178  and  _179
REMARK   61  A    between atoms: _178  and  _181
REMARK   62  A    between atoms: _181  and  _182
REMARK   63  A    between atoms: _185  and  _187
REMARK   64  A    between atoms: _187  and  _188
REMARK   65  A    between atoms: _187  and  _190
REMARK   66  A    between atoms: _190  and  _191
REMARK   67  A    between atoms: _192  and  ZN_393
REMARK   68  A    between atoms: _196  and  _198
REMARK   69  A    between atoms: _198  and  _199
REMARK   70  A    between atoms: _198  and  _201
REMARK   71  A    between atoms: _201  and  _202
REMARK   72  A    between atoms: _205  and  _207
REMARK   73  A    between atoms: _207  and  _208
REMARK   74  A    between atoms: _207  and  _210
REMARK   75  A    between atoms: _213  and  _215
REMARK   76  A    between atoms: _215  and  _216
REMARK   77  A    between atoms: _215  and  _218
REMARK   78  A    between atoms: _218  and  _219
REMARK   79  A    between atoms: _224  and  _226
REMARK   80  A    between atoms: _226  and  _227
REMARK   81  A    between atoms: _226  and  _229
REMARK   82  A    between atoms: _229  and  _230
REMARK   83  A    between atoms: _236  and  _238
REMARK   84  A    between atoms: _238  and  _239
REMARK   85  A    between atoms: _238  and  _241
REMARK   86  A    between atoms: _244  and  _246
REMARK   87  A    between atoms: _246  and  _247
REMARK   88  A    between atoms: _246  and  _249
REMARK   89  A    between atoms: _249  and  _250
REMARK   90  A    between atoms: _253  and  _255
REMARK   91  A    between atoms: _255  and  _256
REMARK   92  A    between atoms: _259  and  _261
REMARK   93  A    between atoms: _261  and  _262
REMARK   94  A    between atoms: _261  and  _264
REMARK   95  A    between atoms: _267  and  _269
REMARK   96  A    between atoms: _269  and  _270
REMARK   97  A    between atoms: _269  and  _272
REMARK   98  A    between atoms: _272  and  _273
REMARK   99  A    between atoms: _275  and  _277
REMARK  100  A    between atoms: _277  and  _278
REMARK  101  A    between atoms: _277  and  _280
REMARK  102  A    between atoms: _280  and  _281
REMARK  103  A    between atoms: _284  and  _286
REMARK  104  A    between atoms: _286  and  _287
REMARK  105  A    between atoms: _286  and  _289
REMARK  106  A    between atoms: _289  and  _290
REMARK  107  A    between atoms: _293  and  _295
REMARK  108  A    between atoms: _295  and  _296
REMARK  109  A    between atoms: _295  and  _298
REMARK  110  A    between atoms: _298  and  _299
REMARK  111  A    between atoms: _303  and  _304
REMARK  112  A    between atoms: _310  and  _311
REMARK  113  A    between atoms: _316  and  _318
REMARK  114  A    between atoms: _318  and  _319
REMARK  115  A    between atoms: _318  and  _321
REMARK  116  A    between atoms: _321  and  _322
REMARK  117  A    between atoms: _325  and  _327
REMARK  118  A    between atoms: _327  and  _328
REMARK  119  A    between atoms: _327  and  _330
REMARK  120  A    between atoms: _330  and  _331
REMARK  121  A    between atoms: _334  and  _336
REMARK  122  A    between atoms: _336  and  _337
REMARK  123  A    between atoms: _336  and  _339
REMARK  124  A    between atoms: _341  and  _343
REMARK  125  A    between atoms: _343  and  _344
REMARK  126  A    between atoms: _343  and  _346
REMARK  127  A    between atoms: _349  and  _351
REMARK  128  A    between atoms: _351  and  _352
REMARK  129  A    between atoms: _351  and  _354
REMARK  130  A    between atoms: _354  and  _355
REMARK  131  A    between atoms: _365  and  _367
REMARK  132  A    between atoms: _367  and  _368
REMARK  133  A    between atoms: _367  and  _370
REMARK  134  A    between atoms: _370  and  _371
REMARK  135  A    between atoms: _376  and  _378
REMARK  136  A    between atoms: _378  and  _379
REMARK  137  A    between atoms: _378  and  _381
REMARK  138  A    between atoms: _381  and  _382
REMARK  139  A    between atoms: _382  and  _383
REMARK  140  A    between atoms: _383  and  _384
REMARK                            x       y       z     vdW  Elec       q    Type
REMARK                         _______ _______ _______ _____ _____    ______ ____
ROOT
ATOM      1  O   HOH     1      10.500   8.509   7.909  0.00  0.00    +0.000 OA
ENDROOT
TORSDOF 0
REMARK  Name = ../refined-set-2016/4q87/4q87_pocket.pdb
REMARK  140 active torsions:
REMARK  status: ('A' for Active; 'I' for Inactive)
REMARK    1  A    between atoms: _1  and  _3
REMARK    2  A    between atoms: _3  and  _4
REMARK    3  A    between atoms: _3  and  _6
REMARK    4  A    between atoms: _6  and  _7
REMARK    5  A    between atoms: _17  and  _19
REMARK    6  A    between atoms: _19  and  _20
REMARK    7  A    between atoms: _19  and  _22
REMARK    8  A    between atoms: _22  and  _23
REMARK    9  A    between atoms: _28  and  _29
REMARK   10  A    between atoms: _31  and  _33
REMARK   11  A    between atoms: _33  and  _34
REMARK   12  A    between atoms: _33  and  _36
REMARK   13  A    between atoms: _36  and  _37
REMARK   14  A    between atoms: _39  and  _41
REMARK   15  A    between atoms: _41  and  _42
REMARK   16  A    between atoms: _41  and  _44
REMARK   17  A    between atoms: _44  and  _45
REMARK   18  A    between atoms: _50  and  _52
REMARK   19  A    between atoms: _52  and  _53
REMARK   20  A    between atoms: _52  and  _55
REMARK   21  A    between atoms: _55  and  _56
REMARK   22  A    between atoms: _61  and  _63
REMARK   23  A    between atoms: _63  and  _64
REMARK   24  A    between atoms: _67  and  _69
REMARK   25  A    between atoms: _69  and  _70
REMARK   26  A    between atoms: _69  and  _72
REMARK   27  A    between atoms: _72  and  _73
REMARK   28  A    between atoms: _78  and  _80
REMARK   29  A    between atoms: _80  and  _81
REMARK   30  A    between atoms: _80  and  _83
REMARK   31  A    between atoms: _83  and  _84
REMARK   32  A    between atoms: _87  and  _89
REMARK   33  A    between atoms: _89  and  _90
REMARK   34  A    between atoms: _89  and  _92
REMARK   35  A    between atoms: _92  and  _93
REMARK   36  A    between atoms: _93  and  _94
REMARK   37  A    between atoms: _99  and  _101
REMARK   38  A    between atoms: _101  and  _102
REMARK   39  A    between atoms: _101  and  _104
REMARK   40  A    between atoms: _104  and  _105
REMARK   41  A    between atoms: _111  and  _113
REMARK   42  A    between atoms: _124  and  _127
REMARK   43  A    between atoms: _127  and  _128
REMARK   44  A    between atoms: _136  and  _137
REMARK   45  A    between atoms: _145  and  _147
REMARK   46  A    between atoms: _147  and  _148
REMARK   47  A    between atoms: _147  and  _150
REMARK   48  A    between atoms: _150  and  _151
REMARK   49  A    between atoms: _151  and  _152
REMARK   50  A    between atoms: _155  and  _157
REMARK   51  A    between atoms: _157  and  _158
REMARK   52  A    between atoms: _157  and  _160
REMARK   53  A    between atoms: _160  and  _161
REMARK   54  A    between atoms: _166  and  _168
REMARK   55  A    between atoms: _168  and  _169
REMARK   56  A    between atoms: _168  and  _171
REMARK   57  A    between atoms: _171  and  _172
REMARK   58  A    between atoms: _172  and  _173
REMARK   59  A    between atoms: _176  and  _178
REMARK   60  A    between atoms: _178  and  _179
REMARK   61  A    between atoms: _178  and  _181
REMARK   62  A    between atoms: _181  and  _182
REMARK   63  A    between atoms: _185  and  _187
REMARK   64  A    between atoms: _187  and  _188
REMARK   65  A    between atoms: _187  and  _190
REMARK   66  A    between atoms: _190  and  _191
REMARK   67  A    between atoms: _192  and  ZN_393
REMARK   68  A    between atoms: _196  and  _198
REMARK   69  A    between atoms: _198  and  _199
REMARK   70  A    between atoms: _198  and  _201
REMARK   71  A    between atoms: _201  and  _202
REMARK   72  A    between atoms: _205  and  _207
REMARK   73  A    between atoms: _207  and  _208
REMARK   74  A    between atoms: _207  and  _210
REMARK   75  A    between atoms: _213  and  _215
REMARK   76  A    between atoms: _215  and  _216
REMARK   77  A    between atoms: _215  and  _218
REMARK   78  A    between atoms: _218  and  _219
REMARK   79  A    between atoms: _224  and  _226
REMARK   80  A    between atoms: _226  and  _227
REMARK   81  A    between atoms: _226  and  _229
REMARK   82  A    between atoms: _229  and  _230
REMARK   83  A    between atoms: _236  and  _238
REMARK   84  A    between atoms: _238  and  _239
REMARK   85  A    between atoms: _238  and  _241
REMARK   86  A    between atoms: _244  and  _246
REMARK   87  A    between atoms: _246  and  _247
REMARK   88  A    between atoms: _246  and  _249
REMARK   89  A    between atoms: _249  and  _250
REMARK   90  A    between atoms: _253  and  _255
REMARK   91  A    between atoms: _255  and  _256
REMARK   92  A    between atoms: _259  and  _261
REMARK   93  A    between atoms: _261  and  _262
REMARK   94  A    between atoms: _261  and  _264
REMARK   95  A    between atoms: _267  and  _269
REMARK   96  A    between atoms: _269  and  _270
REMARK   97  A    between atoms: _269  and  _272
REMARK   98  A    between atoms: _272  and  _273
REMARK   99  A    between atoms: _275  and  _277
REMARK  100  A    between atoms: _277  and  _278
REMARK  101  A    between atoms: _277  and  _280
REMARK  102  A    between atoms: _280  and  _281
REMARK  103  A    between atoms: _284  and  _286
REMARK  104  A    between atoms: _286  and  _287
REMARK  105  A    between atoms: _286  and  _289
REMARK  106  A    between atoms: _289  and  _290
REMARK  107  A    between atoms: _293  and  _295
REMARK  108  A    between atoms: _295  and  _296
REMARK  109  A    between atoms: _295  and  _298
REMARK  110  A    between atoms: _298  and  _299
REMARK  111  A    between atoms: _303  and  _304
REMARK  112  A    between atoms: _310  and  _311
REMARK  113  A    between atoms: _316  and  _318
REMARK  114  A    between atoms: _318  and  _319
REMARK  115  A    between atoms: _318  and  _321
REMARK  116  A    between atoms: _321  and  _322
REMARK  117  A    between atoms: _325  and  _327
REMARK  118  A    between atoms: _327  and  _328
REMARK  119  A    between atoms: _327  and  _330
REMARK  120  A    between atoms: _330  and  _331
REMARK  121  A    between atoms: _334  and  _336
REMARK  122  A    between atoms: _336  and  _337
REMARK  123  A    between atoms: _336  and  _339
REMARK  124  A    between atoms: _341  and  _343
REMARK  125  A    between atoms: _343  and  _344
REMARK  126  A    between atoms: _343  and  _346
REMARK  127  A    between atoms: _349  and  _351
REMARK  128  A    between atoms: _351  and  _352
REMARK  129  A    between atoms: _351  and  _354
REMARK  130  A    between atoms: _354  and  _355
REMARK  131  A    between atoms: _365  and  _367
REMARK  132  A    between atoms: _367  and  _368
REMARK  133  A    between atoms: _367  and  _370
REMARK  134  A    between atoms: _370  and  _371
REMARK  135  A    between atoms: _376  and  _378
REMARK  136  A    between atoms: _378  and  _379
REMARK  137  A    between atoms: _378  and  _381
REMARK  138  A    between atoms: _381  and  _382
REMARK  139  A    between atoms: _382  and  _383
REMARK  140  A    between atoms: _383  and  _384
REMARK                            x       y       z     vdW  Elec       q    Type
REMARK                         _______ _______ _______ _____ _____    ______ ____
ROOT
ATOM      1  O   HOH     1      15.694   6.841  10.914  0.00  0.00    +0.000 OA
ENDROOT
TORSDOF 0
REMARK  Name = ../refined-set-2016/4q87/4q87_pocket.pdb
REMARK  140 active torsions:
REMARK  status: ('A' for Active; 'I' for Inactive)
REMARK    1  A    between atoms: _1  and  _3
REMARK    2  A    between atoms: _3  and  _4
REMARK    3  A    between atoms: _3  and  _6
REMARK    4  A    between atoms: _6  and  _7
REMARK    5  A    between atoms: _17  and  _19
REMARK    6  A    between atoms: _19  and  _20
REMARK    7  A    between atoms: _19  and  _22
REMARK    8  A    between atoms: _22  and  _23
REMARK    9  A    between atoms: _28  and  _29
REMARK   10  A    between atoms: _31  and  _33
REMARK   11  A    between atoms: _33  and  _34
REMARK   12  A    between atoms: _33  and  _36
REMARK   13  A    between atoms: _36  and  _37
REMARK   14  A    between atoms: _39  and  _41
REMARK   15  A    between atoms: _41  and  _42
REMARK   16  A    between atoms: _41  and  _44
REMARK   17  A    between atoms: _44  and  _45
REMARK   18  A    between atoms: _50  and  _52
REMARK   19  A    between atoms: _52  and  _53
REMARK   20  A    between atoms: _52  and  _55
REMARK   21  A    between atoms: _55  and  _56
REMARK   22  A    between atoms: _61  and  _63
REMARK   23  A    between atoms: _63  and  _64
REMARK   24  A    between atoms: _67  and  _69
REMARK   25  A    between atoms: _69  and  _70
REMARK   26  A    between atoms: _69  and  _72
REMARK   27  A    between atoms: _72  and  _73
REMARK   28  A    between atoms: _78  and  _80
REMARK   29  A    between atoms: _80  and  _81
REMARK   30  A    between atoms: _80  and  _83
REMARK   31  A    between atoms: _83  and  _84
REMARK   32  A    between atoms: _87  and  _89
REMARK   33  A    between atoms: _89  and  _90
REMARK   34  A    between atoms: _89  and  _92
REMARK   35  A    between atoms: _92  and  _93
REMARK   36  A    between atoms: _93  and  _94
REMARK   37  A    between atoms: _99  and  _101
REMARK   38  A    between atoms: _101  and  _102
REMARK   39  A    between atoms: _101  and  _104
REMARK   40  A    between atoms: _104  and  _105
REMARK   41  A    between atoms: _111  and  _113
REMARK   42  A    between atoms: _124  and  _127
REMARK   43  A    between atoms: _127  and  _128
REMARK   44  A    between atoms: _136  and  _137
REMARK   45  A    between atoms: _145  and  _147
REMARK   46  A    between atoms: _147  and  _148
REMARK   47  A    between atoms: _147  and  _150
REMARK   48  A    between atoms: _150  and  _151
REMARK   49  A    between atoms: _151  and  _152
REMARK   50  A    between atoms: _155  and  _157
REMARK   51  A    between atoms: _157  and  _158
REMARK   52  A    between atoms: _157  and  _160
REMARK   53  A    between atoms: _160  and  _161
REMARK   54  A    between atoms: _166  and  _168
REMARK   55  A    between atoms: _168  and  _169
REMARK   56  A    between atoms: _168  and  _171
REMARK   57  A    between atoms: _171  and  _172
REMARK   58  A    between atoms: _172  and  _173
REMARK   59  A    between atoms: _176  and  _178
REMARK   60  A    between atoms: _178  and  _179
REMARK   61  A    between atoms: _178  and  _181
REMARK   62  A    between atoms: _181  and  _182
REMARK   63  A    between atoms: _185  and  _187
REMARK   64  A    between atoms: _187  and  _188
REMARK   65  A    between atoms: _187  and  _190
REMARK   66  A    between atoms: _190  and  _191
REMARK   67  A    between atoms: _192  and  ZN_393
REMARK   68  A    between atoms: _196  and  _198
REMARK   69  A    between atoms: _198  and  _199
REMARK   70  A    between atoms: _198  and  _201
REMARK   71  A    between atoms: _201  and  _202
REMARK   72  A    between atoms: _205  and  _207
REMARK   73  A    between atoms: _207  and  _208
REMARK   74  A    between atoms: _207  and  _210
REMARK   75  A    between atoms: _213  and  _215
REMARK   76  A    between atoms: _215  and  _216
REMARK   77  A    between atoms: _215  and  _218
REMARK   78  A    between atoms: _218  and  _219
REMARK   79  A    between atoms: _224  and  _226
REMARK   80  A    between atoms: _226  and  _227
REMARK   81  A    between atoms: _226  and  _229
REMARK   82  A    between atoms: _229  and  _230
REMARK   83  A    between atoms: _236  and  _238
REMARK   84  A    between atoms: _238  and  _239
REMARK   85  A    between atoms: _238  and  _241
REMARK   86  A    between atoms: _244  and  _246
REMARK   87  A    between atoms: _246  and  _247
REMARK   88  A    between atoms: _246  and  _249
REMARK   89  A    between atoms: _249  and  _250
REMARK   90  A    between atoms: _253  and  _255
REMARK   91  A    between atoms: _255  and  _256
REMARK   92  A    between atoms: _259  and  _261
REMARK   93  A    between atoms: _261  and  _262
REMARK   94  A    between atoms: _261  and  _264
REMARK   95  A    between atoms: _267  and  _269
REMARK   96  A    between atoms: _269  and  _270
REMARK   97  A    between atoms: _269  and  _272
REMARK   98  A    between atoms: _272  and  _273
REMARK   99  A    between atoms: _275  and  _277
REMARK  100  A    between atoms: _277  and  _278
REMARK  101  A    between atoms: _277  and  _280
REMARK  102  A    between atoms: _280  and  _281
REMARK  103  A    between atoms: _284  and  _286
REMARK  104  A    between atoms: _286  and  _287
REMARK  105  A    between atoms: _286  and  _289
REMARK  106  A    between atoms: _289  and  _290
REMARK  107  A    between atoms: _293  and  _295
REMARK  108  A    between atoms: _295  and  _296
REMARK  109  A    between atoms: _295  and  _298
REMARK  110  A    between atoms: _298  and  _299
REMARK  111  A    between atoms: _303  and  _304
REMARK  112  A    between atoms: _310  and  _311
REMARK  113  A    between atoms: _316  and  _318
REMARK  114  A    between atoms: _318  and  _319
REMARK  115  A    between atoms: _318  and  _321
REMARK  116  A    between atoms: _321  and  _322
REMARK  117  A    between atoms: _325  and  _327
REMARK  118  A    between atoms: _327  and  _328
REMARK  119  A    between atoms: _327  and  _330
REMARK  120  A    between atoms: _330  and  _331
REMARK  121  A    between atoms: _334  and  _336
REMARK  122  A    between atoms: _336  and  _337
REMARK  123  A    between atoms: _336  and  _339
REMARK  124  A    between atoms: _341  and  _343
REMARK  125  A    between atoms: _343  and  _344
REMARK  126  A    between atoms: _343  and  _346
REMARK  127  A    between atoms: _349  and  _351
REMARK  128  A    between atoms: _351  and  _352
REMARK  129  A    between atoms: _351  and  _354
REMARK  130  A    between atoms: _354  and  _355
REMARK  131  A    between atoms: _365  and  _367
REMARK  132  A    between atoms: _367  and  _368
REMARK  133  A    between atoms: _367  and  _370
REMARK  134  A    between atoms: _370  and  _371
REMARK  135  A    between atoms: _376  and  _378
REMARK  136  A    between atoms: _378  and  _379
REMARK  137  A    between atoms: _378  and  _381
REMARK  138  A    between atoms: _381  and  _382
REMARK  139  A    between atoms: _382  and  _383
REMARK  140  A    between atoms: _383  and  _384
REMARK                            x       y       z     vdW  Elec       q    Type
REMARK                         _______ _______ _______ _____ _____    ______ ____
ROOT
ATOM      1  O   HOH     1      19.229   4.455   7.760  0.00  0.00    +0.000 OA
ENDROOT
TORSDOF 0
REMARK  Name = ../refined-set-2016/4q87/4q87_pocket.pdb
REMARK  140 active torsions:
REMARK  status: ('A' for Active; 'I' for Inactive)
REMARK    1  A    between atoms: _1  and  _3
REMARK    2  A    between atoms: _3  and  _4
REMARK    3  A    between atoms: _3  and  _6
REMARK    4  A    between atoms: _6  and  _7
REMARK    5  A    between atoms: _17  and  _19
REMARK    6  A    between atoms: _19  and  _20
REMARK    7  A    between atoms: _19  and  _22
REMARK    8  A    between atoms: _22  and  _23
REMARK    9  A    between atoms: _28  and  _29
REMARK   10  A    between atoms: _31  and  _33
REMARK   11  A    between atoms: _33  and  _34
REMARK   12  A    between atoms: _33  and  _36
REMARK   13  A    between atoms: _36  and  _37
REMARK   14  A    between atoms: _39  and  _41
REMARK   15  A    between atoms: _41  and  _42
REMARK   16  A    between atoms: _41  and  _44
REMARK   17  A    between atoms: _44  and  _45
REMARK   18  A    between atoms: _50  and  _52
REMARK   19  A    between atoms: _52  and  _53
REMARK   20  A    between atoms: _52  and  _55
REMARK   21  A    between atoms: _55  and  _56
REMARK   22  A    between atoms: _61  and  _63
REMARK   23  A    between atoms: _63  and  _64
REMARK   24  A    between atoms: _67  and  _69
REMARK   25  A    between atoms: _69  and  _70
REMARK   26  A    between atoms: _69  and  _72
REMARK   27  A    between atoms: _72  and  _73
REMARK   28  A    between atoms: _78  and  _80
REMARK   29  A    between atoms: _80  and  _81
REMARK   30  A    between atoms: _80  and  _83
REMARK   31  A    between atoms: _83  and  _84
REMARK   32  A    between atoms: _87  and  _89
REMARK   33  A    between atoms: _89  and  _90
REMARK   34  A    between atoms: _89  and  _92
REMARK   35  A    between atoms: _92  and  _93
REMARK   36  A    between atoms: _93  and  _94
REMARK   37  A    between atoms: _99  and  _101
REMARK   38  A    between atoms: _101  and  _102
REMARK   39  A    between atoms: _101  and  _104
REMARK   40  A    between atoms: _104  and  _105
REMARK   41  A    between atoms: _111  and  _113
REMARK   42  A    between atoms: _124  and  _127
REMARK   43  A    between atoms: _127  and  _128
REMARK   44  A    between atoms: _136  and  _137
REMARK   45  A    between atoms: _145  and  _147
REMARK   46  A    between atoms: _147  and  _148
REMARK   47  A    between atoms: _147  and  _150
REMARK   48  A    between atoms: _150  and  _151
REMARK   49  A    between atoms: _151  and  _152
REMARK   50  A    between atoms: _155  and  _157
REMARK   51  A    between atoms: _157  and  _158
REMARK   52  A    between atoms: _157  and  _160
REMARK   53  A    between atoms: _160  and  _161
REMARK   54  A    between atoms: _166  and  _168
REMARK   55  A    between atoms: _168  and  _169
REMARK   56  A    between atoms: _168  and  _171
REMARK   57  A    between atoms: _171  and  _172
REMARK   58  A    between atoms: _172  and  _173
REMARK   59  A    between atoms: _176  and  _178
REMARK   60  A    between atoms: _178  and  _179
REMARK   61  A    between atoms: _178  and  _181
REMARK   62  A    between atoms: _181  and  _182
REMARK   63  A    between atoms: _185  and  _187
REMARK   64  A    between atoms: _187  and  _188
REMARK   65  A    between atoms: _187  and  _190
REMARK   66  A    between atoms: _190  and  _191
REMARK   67  A    between atoms: _192  and  ZN_393
REMARK   68  A    between atoms: _196  and  _198
REMARK   69  A    between atoms: _198  and  _199
REMARK   70  A    between atoms: _198  and  _201
REMARK   71  A    between atoms: _201  and  _202
REMARK   72  A    between atoms: _205  and  _207
REMARK   73  A    between atoms: _207  and  _208
REMARK   74  A    between atoms: _207  and  _210
REMARK   75  A    between atoms: _213  and  _215
REMARK   76  A    between atoms: _215  and  _216
REMARK   77  A    between atoms: _215  and  _218
REMARK   78  A    between atoms: _218  and  _219
REMARK   79  A    between atoms: _224  and  _226
REMARK   80  A    between atoms: _226  and  _227
REMARK   81  A    between atoms: _226  and  _229
REMARK   82  A    between atoms: _229  and  _230
REMARK   83  A    between atoms: _236  and  _238
REMARK   84  A    between atoms: _238  and  _239
REMARK   85  A    between atoms: _238  and  _241
REMARK   86  A    between atoms: _244  and  _246
REMARK   87  A    between atoms: _246  and  _247
REMARK   88  A    between atoms: _246  and  _249
REMARK   89  A    between atoms: _249  and  _250
REMARK   90  A    between atoms: _253  and  _255
REMARK   91  A    between atoms: _255  and  _256
REMARK   92  A    between atoms: _259  and  _261
REMARK   93  A    between atoms: _261  and  _262
REMARK   94  A    between atoms: _261  and  _264
REMARK   95  A    between atoms: _267  and  _269
REMARK   96  A    between atoms: _269  and  _270
REMARK   97  A    between atoms: _269  and  _272
REMARK   98  A    between atoms: _272  and  _273
REMARK   99  A    between atoms: _275  and  _277
REMARK  100  A    between atoms: _277  and  _278
REMARK  101  A    between atoms: _277  and  _280
REMARK  102  A    between atoms: _280  and  _281
REMARK  103  A    between atoms: _284  and  _286
REMARK  104  A    between atoms: _286  and  _287
REMARK  105  A    between atoms: _286  and  _289
REMARK  106  A    between atoms: _289  and  _290
REMARK  107  A    between atoms: _293  and  _295
REMARK  108  A    between atoms: _295  and  _296
REMARK  109  A    between atoms: _295  and  _298
REMARK  110  A    between atoms: _298  and  _299
REMARK  111  A    between atoms: _303  and  _304
REMARK  112  A    between atoms: _310  and  _311
REMARK  113  A    between atoms: _316  and  _318
REMARK  114  A    between atoms: _318  and  _319
REMARK  115  A    between atoms: _318  and  _321
REMARK  116  A    between atoms: _321  and  _322
REMARK  117  A    between atoms: _325  and  _327
REMARK  118  A    between atoms: _327  and  _328
REMARK  119  A    between atoms: _327  and  _330
REMARK  120  A    between atoms: _330  and  _331
REMARK  121  A    between atoms: _334  and  _336
REMARK  122  A    between atoms: _336  and  _337
REMARK  123  A    between atoms: _336  and  _339
REMARK  124  A    between atoms: _341  and  _343
REMARK  125  A    between atoms: _343  and  _344
REMARK  126  A    between atoms: _343  and  _346
REMARK  127  A    between atoms: _349  and  _351
REMARK  128  A    between atoms: _351  and  _352
REMARK  129  A    between atoms: _351  and  _354
REMARK  130  A    between atoms: _354  and  _355
REMARK  131  A    between atoms: _365  and  _367
REMARK  132  A    between atoms: _367  and  _368
REMARK  133  A    between atoms: _367  and  _370
REMARK  134  A    between atoms: _370  and  _371
REMARK  135  A    between atoms: _376  and  _378
REMARK  136  A    between atoms: _378  and  _379
REMARK  137  A    between atoms: _378  and  _381
REMARK  138  A    between atoms: _381  and  _382
REMARK  139  A    between atoms: _382  and  _383
REMARK  140  A    between atoms: _383  and  _384
REMARK                            x       y       z     vdW  Elec       q    Type
REMARK                         _______ _______ _______ _____ _____    ______ ____
ROOT
ATOM      1  O   HOH     1      15.860   0.853  10.403  0.00  0.00    +0.000 OA
ENDROOT
TORSDOF 0
REMARK  Name = ../refined-set-2016/4q87/4q87_pocket.pdb
REMARK  140 active torsions:
REMARK  status: ('A' for Active; 'I' for Inactive)
REMARK    1  A    between atoms: _1  and  _3
REMARK    2  A    between atoms: _3  and  _4
REMARK    3  A    between atoms: _3  and  _6
REMARK    4  A    between atoms: _6  and  _7
REMARK    5  A    between atoms: _17  and  _19
REMARK    6  A    between atoms: _19  and  _20
REMARK    7  A    between atoms: _19  and  _22
REMARK    8  A    between atoms: _22  and  _23
REMARK    9  A    between atoms: _28  and  _29
REMARK   10  A    between atoms: _31  and  _33
REMARK   11  A    between atoms: _33  and  _34
REMARK   12  A    between atoms: _33  and  _36
REMARK   13  A    between atoms: _36  and  _37
REMARK   14  A    between atoms: _39  and  _41
REMARK   15  A    between atoms: _41  and  _42
REMARK   16  A    between atoms: _41  and  _44
REMARK   17  A    between atoms: _44  and  _45
REMARK   18  A    between atoms: _50  and  _52
REMARK   19  A    between atoms: _52  and  _53
REMARK   20  A    between atoms: _52  and  _55
REMARK   21  A    between atoms: _55  and  _56
REMARK   22  A    between atoms: _61  and  _63
REMARK   23  A    between atoms: _63  and  _64
REMARK   24  A    between atoms: _67  and  _69
REMARK   25  A    between atoms: _69  and  _70
REMARK   26  A    between atoms: _69  and  _72
REMARK   27  A    between atoms: _72  and  _73
REMARK   28  A    between atoms: _78  and  _80
REMARK   29  A    between atoms: _80  and  _81
REMARK   30  A    between atoms: _80  and  _83
REMARK   31  A    between atoms: _83  and  _84
REMARK   32  A    between atoms: _87  and  _89
REMARK   33  A    between atoms: _89  and  _90
REMARK   34  A    between atoms: _89  and  _92
REMARK   35  A    between atoms: _92  and  _93
REMARK   36  A    between atoms: _93  and  _94
REMARK   37  A    between atoms: _99  and  _101
REMARK   38  A    between atoms: _101  and  _102
REMARK   39  A    between atoms: _101  and  _104
REMARK   40  A    between atoms: _104  and  _105
REMARK   41  A    between atoms: _111  and  _113
REMARK   42  A    between atoms: _124  and  _127
REMARK   43  A    between atoms: _127  and  _128
REMARK   44  A    between atoms: _136  and  _137
REMARK   45  A    between atoms: _145  and  _147
REMARK   46  A    between atoms: _147  and  _148
REMARK   47  A    between atoms: _147  and  _150
REMARK   48  A    between atoms: _150  and  _151
REMARK   49  A    between atoms: _151  and  _152
REMARK   50  A    between atoms: _155  and  _157
REMARK   51  A    between atoms: _157  and  _158
REMARK   52  A    between atoms: _157  and  _160
REMARK   53  A    between atoms: _160  and  _161
REMARK   54  A    between atoms: _166  and  _168
REMARK   55  A    between atoms: _168  and  _169
REMARK   56  A    between atoms: _168  and  _171
REMARK   57  A    between atoms: _171  and  _172
REMARK   58  A    between atoms: _172  and  _173
REMARK   59  A    between atoms: _176  and  _178
REMARK   60  A    between atoms: _178  and  _179
REMARK   61  A    between atoms: _178  and  _181
REMARK   62  A    between atoms: _181  and  _182
REMARK   63  A    between atoms: _185  and  _187
REMARK   64  A    between atoms: _187  and  _188
REMARK   65  A    between atoms: _187  and  _190
REMARK   66  A    between atoms: _190  and  _191
REMARK   67  A    between atoms: _192  and  ZN_393
REMARK   68  A    between atoms: _196  and  _198
REMARK   69  A    between atoms: _198  and  _199
REMARK   70  A    between atoms: _198  and  _201
REMARK   71  A    between atoms: _201  and  _202
REMARK   72  A    between atoms: _205  and  _207
REMARK   73  A    between atoms: _207  and  _208
REMARK   74  A    between atoms: _207  and  _210
REMARK   75  A    between atoms: _213  and  _215
REMARK   76  A    between atoms: _215  and  _216
REMARK   77  A    between atoms: _215  and  _218
REMARK   78  A    between atoms: _218  and  _219
REMARK   79  A    between atoms: _224  and  _226
REMARK   80  A    between atoms: _226  and  _227
REMARK   81  A    between atoms: _226  and  _229
REMARK   82  A    between atoms: _229  and  _230
REMARK   83  A    between atoms: _236  and  _238
REMARK   84  A    between atoms: _238  and  _239
REMARK   85  A    between atoms: _238  and  _241
REMARK   86  A    between atoms: _244  and  _246
REMARK   87  A    between atoms: _246  and  _247
REMARK   88  A    between atoms: _246  and  _249
REMARK   89  A    between atoms: _249  and  _250
REMARK   90  A    between atoms: _253  and  _255
REMARK   91  A    between atoms: _255  and  _256
REMARK   92  A    between atoms: _259  and  _261
REMARK   93  A    between atoms: _261  and  _262
REMARK   94  A    between atoms: _261  and  _264
REMARK   95  A    between atoms: _267  and  _269
REMARK   96  A    between atoms: _269  and  _270
REMARK   97  A    between atoms: _269  and  _272
REMARK   98  A    between atoms: _272  and  _273
REMARK   99  A    between atoms: _275  and  _277
REMARK  100  A    between atoms: _277  and  _278
REMARK  101  A    between atoms: _277  and  _280
REMARK  102  A    between atoms: _280  and  _281
REMARK  103  A    between atoms: _284  and  _286
REMARK  104  A    between atoms: _286  and  _287
REMARK  105  A    between atoms: _286  and  _289
REMARK  106  A    between atoms: _289  and  _290
REMARK  107  A    between atoms: _293  and  _295
REMARK  108  A    between atoms: _295  and  _296
REMARK  109  A    between atoms: _295  and  _298
REMARK  110  A    between atoms: _298  and  _299
REMARK  111  A    between atoms: _303  and  _304
REMARK  112  A    between atoms: _310  and  _311
REMARK  113  A    between atoms: _316  and  _318
REMARK  114  A    between atoms: _318  and  _319
REMARK  115  A    between atoms: _318  and  _321
REMARK  116  A    between atoms: _321  and  _322
REMARK  117  A    between atoms: _325  and  _327
REMARK  118  A    between atoms: _327  and  _328
REMARK  119  A    between atoms: _327  and  _330
REMARK  120  A    between atoms: _330  and  _331
REMARK  121  A    between atoms: _334  and  _336
REMARK  122  A    between atoms: _336  and  _337
REMARK  123  A    between atoms: _336  and  _339
REMARK  124  A    between atoms: _341  and  _343
REMARK  125  A    between atoms: _343  and  _344
REMARK  126  A    between atoms: _343  and  _346
REMARK  127  A    between atoms: _349  and  _351
REMARK  128  A    between atoms: _351  and  _352
REMARK  129  A    between atoms: _351  and  _354
REMARK  130  A    between atoms: _354  and  _355
REMARK  131  A    between atoms: _365  and  _367
REMARK  132  A    between atoms: _367  and  _368
REMARK  133  A    between atoms: _367  and  _370
REMARK  134  A    between atoms: _370  and  _371
REMARK  135  A    between atoms: _376  and  _378
REMARK  136  A    between atoms: _378  and  _379
REMARK  137  A    between atoms: _378  and  _381
REMARK  138  A    between atoms: _381  and  _382
REMARK  139  A    between atoms: _382  and  _383
REMARK  140  A    between atoms: _383  and  _384
REMARK                            x       y       z     vdW  Elec       q    Type
REMARK                         _______ _______ _______ _____ _____    ______ ____
ROOT
ATOM      1  O   HOH     1      19.704   8.168  14.812  0.00  0.00    +0.000 OA
ENDROOT
TORSDOF 0
REMARK  Name = ../refined-set-2016/4q87/4q87_pocket.pdb
REMARK  140 active torsions:
REMARK  status: ('A' for Active; 'I' for Inactive)
REMARK    1  A    between atoms: _1  and  _3
REMARK    2  A    between atoms: _3  and  _4
REMARK    3  A    between atoms: _3  and  _6
REMARK    4  A    between atoms: _6  and  _7
REMARK    5  A    between atoms: _17  and  _19
REMARK    6  A    between atoms: _19  and  _20
REMARK    7  A    between atoms: _19  and  _22
REMARK    8  A    between atoms: _22  and  _23
REMARK    9  A    between atoms: _28  and  _29
REMARK   10  A    between atoms: _31  and  _33
REMARK   11  A    between atoms: _33  and  _34
REMARK   12  A    between atoms: _33  and  _36
REMARK   13  A    between atoms: _36  and  _37
REMARK   14  A    between atoms: _39  and  _41
REMARK   15  A    between atoms: _41  and  _42
REMARK   16  A    between atoms: _41  and  _44
REMARK   17  A    between atoms: _44  and  _45
REMARK   18  A    between atoms: _50  and  _52
REMARK   19  A    between atoms: _52  and  _53
REMARK   20  A    between atoms: _52  and  _55
REMARK   21  A    between atoms: _55  and  _56
REMARK   22  A    between atoms: _61  and  _63
REMARK   23  A    between atoms: _63  and  _64
REMARK   24  A    between atoms: _67  and  _69
REMARK   25  A    between atoms: _69  and  _70
REMARK   26  A    between atoms: _69  and  _72
REMARK   27  A    between atoms: _72  and  _73
REMARK   28  A    between atoms: _78  and  _80
REMARK   29  A    between atoms: _80  and  _81
REMARK   30  A    between atoms: _80  and  _83
REMARK   31  A    between atoms: _83  and  _84
REMARK   32  A    between atoms: _87  and  _89
REMARK   33  A    between atoms: _89  and  _90
REMARK   34  A    between atoms: _89  and  _92
REMARK   35  A    between atoms: _92  and  _93
REMARK   36  A    between atoms: _93  and  _94
REMARK   37  A    between atoms: _99  and  _101
REMARK   38  A    between atoms: _101  and  _102
REMARK   39  A    between atoms: _101  and  _104
REMARK   40  A    between atoms: _104  and  _105
REMARK   41  A    between atoms: _111  and  _113
REMARK   42  A    between atoms: _124  and  _127
REMARK   43  A    between atoms: _127  and  _128
REMARK   44  A    between atoms: _136  and  _137
REMARK   45  A    between atoms: _145  and  _147
REMARK   46  A    between atoms: _147  and  _148
REMARK   47  A    between atoms: _147  and  _150
REMARK   48  A    between atoms: _150  and  _151
REMARK   49  A    between atoms: _151  and  _152
REMARK   50  A    between atoms: _155  and  _157
REMARK   51  A    between atoms: _157  and  _158
REMARK   52  A    between atoms: _157  and  _160
REMARK   53  A    between atoms: _160  and  _161
REMARK   54  A    between atoms: _166  and  _168
REMARK   55  A    between atoms: _168  and  _169
REMARK   56  A    between atoms: _168  and  _171
REMARK   57  A    between atoms: _171  and  _172
REMARK   58  A    between atoms: _172  and  _173
REMARK   59  A    between atoms: _176  and  _178
REMARK   60  A    between atoms: _178  and  _179
REMARK   61  A    between atoms: _178  and  _181
REMARK   62  A    between atoms: _181  and  _182
REMARK   63  A    between atoms: _185  and  _187
REMARK   64  A    between atoms: _187  and  _188
REMARK   65  A    between atoms: _187  and  _190
REMARK   66  A    between atoms: _190  and  _191
REMARK   67  A    between atoms: _192  and  ZN_393
REMARK   68  A    between atoms: _196  and  _198
REMARK   69  A    between atoms: _198  and  _199
REMARK   70  A    between atoms: _198  and  _201
REMARK   71  A    between atoms: _201  and  _202
REMARK   72  A    between atoms: _205  and  _207
REMARK   73  A    between atoms: _207  and  _208
REMARK   74  A    between atoms: _207  and  _210
REMARK   75  A    between atoms: _213  and  _215
REMARK   76  A    between atoms: _215  and  _216
REMARK   77  A    between atoms: _215  and  _218
REMARK   78  A    between atoms: _218  and  _219
REMARK   79  A    between atoms: _224  and  _226
REMARK   80  A    between atoms: _226  and  _227
REMARK   81  A    between atoms: _226  and  _229
REMARK   82  A    between atoms: _229  and  _230
REMARK   83  A    between atoms: _236  and  _238
REMARK   84  A    between atoms: _238  and  _239
REMARK   85  A    between atoms: _238  and  _241
REMARK   86  A    between atoms: _244  and  _246
REMARK   87  A    between atoms: _246  and  _247
REMARK   88  A    between atoms: _246  and  _249
REMARK   89  A    between atoms: _249  and  _250
REMARK   90  A    between atoms: _253  and  _255
REMARK   91  A    between atoms: _255  and  _256
REMARK   92  A    between atoms: _259  and  _261
REMARK   93  A    between atoms: _261  and  _262
REMARK   94  A    between atoms: _261  and  _264
REMARK   95  A    between atoms: _267  and  _269
REMARK   96  A    between atoms: _269  and  _270
REMARK   97  A    between atoms: _269  and  _272
REMARK   98  A    between atoms: _272  and  _273
REMARK   99  A    between atoms: _275  and  _277
REMARK  100  A    between atoms: _277  and  _278
REMARK  101  A    between atoms: _277  and  _280
REMARK  102  A    between atoms: _280  and  _281
REMARK  103  A    between atoms: _284  and  _286
REMARK  104  A    between atoms: _286  and  _287
REMARK  105  A    between atoms: _286  and  _289
REMARK  106  A    between atoms: _289  and  _290
REMARK  107  A    between atoms: _293  and  _295
REMARK  108  A    between atoms: _295  and  _296
REMARK  109  A    between atoms: _295  and  _298
REMARK  110  A    between atoms: _298  and  _299
REMARK  111  A    between atoms: _303  and  _304
REMARK  112  A    between atoms: _310  and  _311
REMARK  113  A    between atoms: _316  and  _318
REMARK  114  A    between atoms: _318  and  _319
REMARK  115  A    between atoms: _318  and  _321
REMARK  116  A    between atoms: _321  and  _322
REMARK  117  A    between atoms: _325  and  _327
REMARK  118  A    between atoms: _327  and  _328
REMARK  119  A    between atoms: _327  and  _330
REMARK  120  A    between atoms: _330  and  _331
REMARK  121  A    between atoms: _334  and  _336
REMARK  122  A    between atoms: _336  and  _337
REMARK  123  A    between atoms: _336  and  _339
REMARK  124  A    between atoms: _341  and  _343
REMARK  125  A    between atoms: _343  and  _344
REMARK  126  A    between atoms: _343  and  _346
REMARK  127  A    between atoms: _349  and  _351
REMARK  128  A    between atoms: _351  and  _352
REMARK  129  A    between atoms: _351  and  _354
REMARK  130  A    between atoms: _354  and  _355
REMARK  131  A    between atoms: _365  and  _367
REMARK  132  A    between atoms: _367  and  _368
REMARK  133  A    between atoms: _367  and  _370
REMARK  134  A    between atoms: _370  and  _371
REMARK  135  A    between atoms: _376  and  _378
REMARK  136  A    between atoms: _378  and  _379
REMARK  137  A    between atoms: _378  and  _381
REMARK  138  A    between atoms: _381  and  _382
REMARK  139  A    between atoms: _382  and  _383
REMARK  140  A    between atoms: _383  and  _384
REMARK                            x       y       z     vdW  Elec       q    Type
REMARK                         _______ _______ _______ _____ _____    ______ ____
ROOT
ATOM      1  O   HOH     1      20.032   3.528  13.697  0.00  0.00    +0.000 OA
ENDROOT
TORSDOF 0
REMARK  Name = ../refined-set-2016/4q87/4q87_pocket.pdb
REMARK  140 active torsions:
REMARK  status: ('A' for Active; 'I' for Inactive)
REMARK    1  A    between atoms: _1  and  _3
REMARK    2  A    between atoms: _3  and  _4
REMARK    3  A    between atoms: _3  and  _6
REMARK    4  A    between atoms: _6  and  _7
REMARK    5  A    between atoms: _17  and  _19
REMARK    6  A    between atoms: _19  and  _20
REMARK    7  A    between atoms: _19  and  _22
REMARK    8  A    between atoms: _22  and  _23
REMARK    9  A    between atoms: _28  and  _29
REMARK   10  A    between atoms: _31  and  _33
REMARK   11  A    between atoms: _33  and  _34
REMARK   12  A    between atoms: _33  and  _36
REMARK   13  A    between atoms: _36  and  _37
REMARK   14  A    between atoms: _39  and  _41
REMARK   15  A    between atoms: _41  and  _42
REMARK   16  A    between atoms: _41  and  _44
REMARK   17  A    between atoms: _44  and  _45
REMARK   18  A    between atoms: _50  and  _52
REMARK   19  A    between atoms: _52  and  _53
REMARK   20  A    between atoms: _52  and  _55
REMARK   21  A    between atoms: _55  and  _56
REMARK   22  A    between atoms: _61  and  _63
REMARK   23  A    between atoms: _63  and  _64
REMARK   24  A    between atoms: _67  and  _69
REMARK   25  A    between atoms: _69  and  _70
REMARK   26  A    between atoms: _69  and  _72
REMARK   27  A    between atoms: _72  and  _73
REMARK   28  A    between atoms: _78  and  _80
REMARK   29  A    between atoms: _80  and  _81
REMARK   30  A    between atoms: _80  and  _83
REMARK   31  A    between atoms: _83  and  _84
REMARK   32  A    between atoms: _87  and  _89
REMARK   33  A    between atoms: _89  and  _90
REMARK   34  A    between atoms: _89  and  _92
REMARK   35  A    between atoms: _92  and  _93
REMARK   36  A    between atoms: _93  and  _94
REMARK   37  A    between atoms: _99  and  _101
REMARK   38  A    between atoms: _101  and  _102
REMARK   39  A    between atoms: _101  and  _104
REMARK   40  A    between atoms: _104  and  _105
REMARK   41  A    between atoms: _111  and  _113
REMARK   42  A    between atoms: _124  and  _127
REMARK   43  A    between atoms: _127  and  _128
REMARK   44  A    between atoms: _136  and  _137
REMARK   45  A    between atoms: _145  and  _147
REMARK   46  A    between atoms: _147  and  _148
REMARK   47  A    between atoms: _147  and  _150
REMARK   48  A    between atoms: _150  and  _151
REMARK   49  A    between atoms: _151  and  _152
REMARK   50  A    between atoms: _155  and  _157
REMARK   51  A    between atoms: _157  and  _158
REMARK   52  A    between atoms: _157  and  _160
REMARK   53  A    between atoms: _160  and  _161
REMARK   54  A    between atoms: _166  and  _168
REMARK   55  A    between atoms: _168  and  _169
REMARK   56  A    between atoms: _168  and  _171
REMARK   57  A    between atoms: _171  and  _172
REMARK   58  A    between atoms: _172  and  _173
REMARK   59  A    between atoms: _176  and  _178
REMARK   60  A    between atoms: _178  and  _179
REMARK   61  A    between atoms: _178  and  _181
REMARK   62  A    between atoms: _181  and  _182
REMARK   63  A    between atoms: _185  and  _187
REMARK   64  A    between atoms: _187  and  _188
REMARK   65  A    between atoms: _187  and  _190
REMARK   66  A    between atoms: _190  and  _191
REMARK   67  A    between atoms: _192  and  ZN_393
REMARK   68  A    between atoms: _196  and  _198
REMARK   69  A    between atoms: _198  and  _199
REMARK   70  A    between atoms: _198  and  _201
REMARK   71  A    between atoms: _201  and  _202
REMARK   72  A    between atoms: _205  and  _207
REMARK   73  A    between atoms: _207  and  _208
REMARK   74  A    between atoms: _207  and  _210
REMARK   75  A    between atoms: _213  and  _215
REMARK   76  A    between atoms: _215  and  _216
REMARK   77  A    between atoms: _215  and  _218
REMARK   78  A    between atoms: _218  and  _219
REMARK   79  A    between atoms: _224  and  _226
REMARK   80  A    between atoms: _226  and  _227
REMARK   81  A    between atoms: _226  and  _229
REMARK   82  A    between atoms: _229  and  _230
REMARK   83  A    between atoms: _236  and  _238
REMARK   84  A    between atoms: _238  and  _239
REMARK   85  A    between atoms: _238  and  _241
REMARK   86  A    between atoms: _244  and  _246
REMARK   87  A    between atoms: _246  and  _247
REMARK   88  A    between atoms: _246  and  _249
REMARK   89  A    between atoms: _249  and  _250
REMARK   90  A    between atoms: _253  and  _255
REMARK   91  A    between atoms: _255  and  _256
REMARK   92  A    between atoms: _259  and  _261
REMARK   93  A    between atoms: _261  and  _262
REMARK   94  A    between atoms: _261  and  _264
REMARK   95  A    between atoms: _267  and  _269
REMARK   96  A    between atoms: _269  and  _270
REMARK   97  A    between atoms: _269  and  _272
REMARK   98  A    between atoms: _272  and  _273
REMARK   99  A    between atoms: _275  and  _277
REMARK  100  A    between atoms: _277  and  _278
REMARK  101  A    between atoms: _277  and  _280
REMARK  102  A    between atoms: _280  and  _281
REMARK  103  A    between atoms: _284  and  _286
REMARK  104  A    between atoms: _286  and  _287
REMARK  105  A    between atoms: _286  and  _289
REMARK  106  A    between atoms: _289  and  _290
REMARK  107  A    between atoms: _293  and  _295
REMARK  108  A    between atoms: _295  and  _296
REMARK  109  A    between atoms: _295  and  _298
REMARK  110  A    between atoms: _298  and  _299
REMARK  111  A    between atoms: _303  and  _304
REMARK  112  A    between atoms: _310  and  _311
REMARK  113  A    between atoms: _316  and  _318
REMARK  114  A    between atoms: _318  and  _319
REMARK  115  A    between atoms: _318  and  _321
REMARK  116  A    between atoms: _321  and  _322
REMARK  117  A    between atoms: _325  and  _327
REMARK  118  A    between atoms: _327  and  _328
REMARK  119  A    between atoms: _327  and  _330
REMARK  120  A    between atoms: _330  and  _331
REMARK  121  A    between atoms: _334  and  _336
REMARK  122  A    between atoms: _336  and  _337
REMARK  123  A    between atoms: _336  and  _339
REMARK  124  A    between atoms: _341  and  _343
REMARK  125  A    between atoms: _343  and  _344
REMARK  126  A    between atoms: _343  and  _346
REMARK  127  A    between atoms: _349  and  _351
REMARK  128  A    between atoms: _351  and  _352
REMARK  129  A    between atoms: _351  and  _354
REMARK  130  A    between atoms: _354  and  _355
REMARK  131  A    between atoms: _365  and  _367
REMARK  132  A    between atoms: _367  and  _368
REMARK  133  A    between atoms: _367  and  _370
REMARK  134  A    between atoms: _370  and  _371
REMARK  135  A    between atoms: _376  and  _378
REMARK  136  A    between atoms: _378  and  _379
REMARK  137  A    between atoms: _378  and  _381
REMARK  138  A    between atoms: _381  and  _382
REMARK  139  A    between atoms: _382  and  _383
REMARK  140  A    between atoms: _383  and  _384
REMARK                            x       y       z     vdW  Elec       q    Type
REMARK                         _______ _______ _______ _____ _____    ______ ____
ROOT
ATOM      1  O   HOH     1      14.365   9.842   7.678  0.00  0.00    +0.000 OA
ENDROOT
TORSDOF 0
REMARK  Name = ../refined-set-2016/4q87/4q87_pocket.pdb
REMARK  140 active torsions:
REMARK  status: ('A' for Active; 'I' for Inactive)
REMARK    1  A    between atoms: _1  and  _3
REMARK    2  A    between atoms: _3  and  _4
REMARK    3  A    between atoms: _3  and  _6
REMARK    4  A    between atoms: _6  and  _7
REMARK    5  A    between atoms: _17  and  _19
REMARK    6  A    between atoms: _19  and  _20
REMARK    7  A    between atoms: _19  and  _22
REMARK    8  A    between atoms: _22  and  _23
REMARK    9  A    between atoms: _28  and  _29
REMARK   10  A    between atoms: _31  and  _33
REMARK   11  A    between atoms: _33  and  _34
REMARK   12  A    between atoms: _33  and  _36
REMARK   13  A    between atoms: _36  and  _37
REMARK   14  A    between atoms: _39  and  _41
REMARK   15  A    between atoms: _41  and  _42
REMARK   16  A    between atoms: _41  and  _44
REMARK   17  A    between atoms: _44  and  _45
REMARK   18  A    between atoms: _50  and  _52
REMARK   19  A    between atoms: _52  and  _53
REMARK   20  A    between atoms: _52  and  _55
REMARK   21  A    between atoms: _55  and  _56
REMARK   22  A    between atoms: _61  and  _63
REMARK   23  A    between atoms: _63  and  _64
REMARK   24  A    between atoms: _67  and  _69
REMARK   25  A    between atoms: _69  and  _70
REMARK   26  A    between atoms: _69  and  _72
REMARK   27  A    between atoms: _72  and  _73
REMARK   28  A    between atoms: _78  and  _80
REMARK   29  A    between atoms: _80  and  _81
REMARK   30  A    between atoms: _80  and  _83
REMARK   31  A    between atoms: _83  and  _84
REMARK   32  A    between atoms: _87  and  _89
REMARK   33  A    between atoms: _89  and  _90
REMARK   34  A    between atoms: _89  and  _92
REMARK   35  A    between atoms: _92  and  _93
REMARK   36  A    between atoms: _93  and  _94
REMARK   37  A    between atoms: _99  and  _101
REMARK   38  A    between atoms: _101  and  _102
REMARK   39  A    between atoms: _101  and  _104
REMARK   40  A    between atoms: _104  and  _105
REMARK   41  A    between atoms: _111  and  _113
REMARK   42  A    between atoms: _124  and  _127
REMARK   43  A    between atoms: _127  and  _128
REMARK   44  A    between atoms: _136  and  _137
REMARK   45  A    between atoms: _145  and  _147
REMARK   46  A    between atoms: _147  and  _148
REMARK   47  A    between atoms: _147  and  _150
REMARK   48  A    between atoms: _150  and  _151
REMARK   49  A    between atoms: _151  and  _152
REMARK   50  A    between atoms: _155  and  _157
REMARK   51  A    between atoms: _157  and  _158
REMARK   52  A    between atoms: _157  and  _160
REMARK   53  A    between atoms: _160  and  _161
REMARK   54  A    between atoms: _166  and  _168
REMARK   55  A    between atoms: _168  and  _169
REMARK   56  A    between atoms: _168  and  _171
REMARK   57  A    between atoms: _171  and  _172
REMARK   58  A    between atoms: _172  and  _173
REMARK   59  A    between atoms: _176  and  _178
REMARK   60  A    between atoms: _178  and  _179
REMARK   61  A    between atoms: _178  and  _181
REMARK   62  A    between atoms: _181  and  _182
REMARK   63  A    between atoms: _185  and  _187
REMARK   64  A    between atoms: _187  and  _188
REMARK   65  A    between atoms: _187  and  _190
REMARK   66  A    between atoms: _190  and  _191
REMARK   67  A    between atoms: _192  and  ZN_393
REMARK   68  A    between atoms: _196  and  _198
REMARK   69  A    between atoms: _198  and  _199
REMARK   70  A    between atoms: _198  and  _201
REMARK   71  A    between atoms: _201  and  _202
REMARK   72  A    between atoms: _205  and  _207
REMARK   73  A    between atoms: _207  and  _208
REMARK   74  A    between atoms: _207  and  _210
REMARK   75  A    between atoms: _213  and  _215
REMARK   76  A    between atoms: _215  and  _216
REMARK   77  A    between atoms: _215  and  _218
REMARK   78  A    between atoms: _218  and  _219
REMARK   79  A    between atoms: _224  and  _226
REMARK   80  A    between atoms: _226  and  _227
REMARK   81  A    between atoms: _226  and  _229
REMARK   82  A    between atoms: _229  and  _230
REMARK   83  A    between atoms: _236  and  _238
REMARK   84  A    between atoms: _238  and  _239
REMARK   85  A    between atoms: _238  and  _241
REMARK   86  A    between atoms: _244  and  _246
REMARK   87  A    between atoms: _246  and  _247
REMARK   88  A    between atoms: _246  and  _249
REMARK   89  A    between atoms: _249  and  _250
REMARK   90  A    between atoms: _253  and  _255
REMARK   91  A    between atoms: _255  and  _256
REMARK   92  A    between atoms: _259  and  _261
REMARK   93  A    between atoms: _261  and  _262
REMARK   94  A    between atoms: _261  and  _264
REMARK   95  A    between atoms: _267  and  _269
REMARK   96  A    between atoms: _269  and  _270
REMARK   97  A    between atoms: _269  and  _272
REMARK   98  A    between atoms: _272  and  _273
REMARK   99  A    between atoms: _275  and  _277
REMARK  100  A    between atoms: _277  and  _278
REMARK  101  A    between atoms: _277  and  _280
REMARK  102  A    between atoms: _280  and  _281
REMARK  103  A    between atoms: _284  and  _286
REMARK  104  A    between atoms: _286  and  _287
REMARK  105  A    between atoms: _286  and  _289
REMARK  106  A    between atoms: _289  and  _290
REMARK  107  A    between atoms: _293  and  _295
REMARK  108  A    between atoms: _295  and  _296
REMARK  109  A    between atoms: _295  and  _298
REMARK  110  A    between atoms: _298  and  _299
REMARK  111  A    between atoms: _303  and  _304
REMARK  112  A    between atoms: _310  and  _311
REMARK  113  A    between atoms: _316  and  _318
REMARK  114  A    between atoms: _318  and  _319
REMARK  115  A    between atoms: _318  and  _321
REMARK  116  A    between atoms: _321  and  _322
REMARK  117  A    between atoms: _325  and  _327
REMARK  118  A    between atoms: _327  and  _328
REMARK  119  A    between atoms: _327  and  _330
REMARK  120  A    between atoms: _330  and  _331
REMARK  121  A    between atoms: _334  and  _336
REMARK  122  A    between atoms: _336  and  _337
REMARK  123  A    between atoms: _336  and  _339
REMARK  124  A    between atoms: _341  and  _343
REMARK  125  A    between atoms: _343  and  _344
REMARK  126  A    between atoms: _343  and  _346
REMARK  127  A    between atoms: _349  and  _351
REMARK  128  A    between atoms: _351  and  _352
REMARK  129  A    between atoms: _351  and  _354
REMARK  130  A    between atoms: _354  and  _355
REMARK  131  A    between atoms: _365  and  _367
REMARK  132  A    between atoms: _367  and  _368
REMARK  133  A    between atoms: _367  and  _370
REMARK  134  A    between atoms: _370  and  _371
REMARK  135  A    between atoms: _376  and  _378
REMARK  136  A    between atoms: _378  and  _379
REMARK  137  A    between atoms: _378  and  _381
REMARK  138  A    between atoms: _381  and  _382
REMARK  139  A    between atoms: _382  and  _383
REMARK  140  A    between atoms: _383  and  _384
REMARK                            x       y       z     vdW  Elec       q    Type
REMARK                         _______ _______ _______ _____ _____    ______ ____
ROOT
ATOM      1  O   HOH     1      19.311   3.573  11.299  0.00  0.00    +0.000 OA
ENDROOT
TORSDOF 0
