REMARK  Name = ../refined-set-2016/1rnt/1rnt_pocket.pdb
REMARK  117 active torsions:
REMARK  status: ('A' for Active; 'I' for Inactive)
REMARK    1  A    between atoms: _1  and  _3
REMARK    2  A    between atoms: _3  and  _4
REMARK    3  A    between atoms: _3  and  _6
REMARK    4  A    between atoms: _6  and  _7
REMARK    5  A    between atoms: _9  and  _11
REMARK    6  A    between atoms: _11  and  _12
REMARK    7  A    between atoms: _11  and  _14
REMARK    8  A    between atoms: _14  and  _15
REMARK    9  A    between atoms: _20  and  _22
REMARK   10  A    between atoms: _22  and  _23
REMARK   11  A    between atoms: _22  and  _25
REMARK   12  A    between atoms: _25  and  _26
REMARK   13  A    between atoms: _28  and  _30
REMARK   14  A    between atoms: _30  and  _31
REMARK   15  A    between atoms: _30  and  _33
REMARK   16  A    between atoms: _33  and  _34
REMARK   17  A    between atoms: _39  and  _40
REMARK   18  A    between atoms: _42  and  _44
REMARK   19  A    between atoms: _44  and  _45
REMARK   20  A    between atoms: _44  and  _47
REMARK   21  A    between atoms: _47  and  _48
REMARK   22  A    between atoms: _53  and  _55
REMARK   23  A    between atoms: _55  and  _56
REMARK   24  A    between atoms: _55  and  _58
REMARK   25  A    between atoms: _58  and  _59
REMARK   26  A    between atoms: _59  and  _60
REMARK   27  A    between atoms: _60  and  _61
REMARK   28  A    between atoms: _61  and  _62
REMARK   29  A    between atoms: _66  and  _68
REMARK   30  A    between atoms: _68  and  _69
REMARK   31  A    between atoms: _68  and  _71
REMARK   32  A    between atoms: _71  and  _72
REMARK   33  A    between atoms: _77  and  _78
REMARK   34  A    between atoms: _80  and  _82
REMARK   35  A    between atoms: _82  and  _83
REMARK   36  A    between atoms: _82  and  _85
REMARK   37  A    between atoms: _85  and  _86
REMARK   38  A    between atoms: _91  and  _93
REMARK   39  A    between atoms: _93  and  _94
REMARK   40  A    between atoms: _93  and  _96
REMARK   41  A    between atoms: _96  and  _97
REMARK   42  A    between atoms: _102  and  _104
REMARK   43  A    between atoms: _104  and  _105
REMARK   44  A    between atoms: _104  and  _107
REMARK   45  A    between atoms: _107  and  _108
REMARK   46  A    between atoms: _113  and  _114
REMARK   47  A    between atoms: _116  and  _118
REMARK   48  A    between atoms: _118  and  _119
REMARK   49  A    between atoms: _118  and  _121
REMARK   50  A    between atoms: _121  and  _122
REMARK   51  A    between atoms: _122  and  _123
REMARK   52  A    between atoms: _126  and  _128
REMARK   53  A    between atoms: _128  and  _129
REMARK   54  A    between atoms: _131  and  _133
REMARK   55  A    between atoms: _133  and  _134
REMARK   56  A    between atoms: _133  and  _136
REMARK   57  A    between atoms: _136  and  _137
REMARK   58  A    between atoms: _143  and  _145
REMARK   59  A    between atoms: _145  and  _146
REMARK   60  A    between atoms: _145  and  _148
REMARK   61  A    between atoms: _148  and  _149
REMARK   62  A    between atoms: _155  and  _157
REMARK   63  A    between atoms: _157  and  _158
REMARK   64  A    between atoms: _157  and  _160
REMARK   65  A    between atoms: _160  and  _161
REMARK   66  A    between atoms: _166  and  _167
REMARK   67  A    between atoms: _169  and  _171
REMARK   68  A    between atoms: _171  and  _172
REMARK   69  A    between atoms: _171  and  _174
REMARK   70  A    between atoms: _175  and  _176
REMARK   71  A    between atoms: _179  and  _181
REMARK   72  A    between atoms: _181  and  _182
REMARK   73  A    between atoms: _181  and  _184
REMARK   74  A    between atoms: _184  and  _185
REMARK   75  A    between atoms: _196  and  _197
REMARK   76  A    between atoms: _203  and  _204
REMARK   77  A    between atoms: _209  and  _211
REMARK   78  A    between atoms: _211  and  _212
REMARK   79  A    between atoms: _214  and  _216
REMARK   80  A    between atoms: _216  and  _217
REMARK   81  A    between atoms: _220  and  _222
REMARK   82  A    between atoms: _222  and  _223
REMARK   83  A    between atoms: _222  and  _225
REMARK   84  A    between atoms: _225  and  _226
REMARK   85  A    between atoms: _226  and  _227
REMARK   86  A    between atoms: _227  and  _228
REMARK   87  A    between atoms: _237  and  _239
REMARK   88  A    between atoms: _239  and  _240
REMARK   89  A    between atoms: _239  and  _242
REMARK   90  A    between atoms: _242  and  _243
REMARK   91  A    between atoms: _246  and  _248
REMARK   92  A    between atoms: _248  and  _249
REMARK   93  A    between atoms: _248  and  _251
REMARK   94  A    between atoms: _251  and  _252
REMARK   95  A    between atoms: _257  and  _259
REMARK   96  A    between atoms: _259  and  _260
REMARK   97  A    between atoms: _263  and  _265
REMARK   98  A    between atoms: _265  and  _266
REMARK   99  A    between atoms: _265  and  _268
REMARK  100  A    between atoms: _268  and  _269
REMARK  101  A    between atoms: _271  and  _273
REMARK  102  A    between atoms: _273  and  _274
REMARK  103  A    between atoms: _276  and  _278
REMARK  104  A    between atoms: _278  and  _279
REMARK  105  A    between atoms: _278  and  _281
REMARK  106  A    between atoms: _281  and  _282
REMARK  107  A    between atoms: _287  and  _289
REMARK  108  A    between atoms: _289  and  _290
REMARK  109  A    between atoms: _289  and  _292
REMARK  110  A    between atoms: _292  and  _293
REMARK  111  A    between atoms: _298  and  _300
REMARK  112  A    between atoms: _300  and  _301
REMARK  113  A    between atoms: _300  and  _303
REMARK  114  A    between atoms: _303  and  _304
REMARK  115  A    between atoms: _310  and  _312
REMARK  116  A    between atoms: _312  and  _313
REMARK  117  A    between atoms: _312  and  _315
REMARK                            x       y       z     vdW  Elec       q    Type
REMARK                         _______ _______ _______ _____ _____    ______ ____
ROOT
ATOM      1  C   ASN A   2      25.439  32.679  15.776  0.00  0.00    +0.241 C 
ATOM      2  O   ASN A   2      24.374  32.128  15.983  0.00  0.00    -0.273 OA
ATOM      3  N   SER A   3      26.208  32.484  14.738  0.00  0.00    -0.295 N 
ATOM      4  H   SER A   3      27.057  33.072  14.614  0.00  0.00    +0.150 HD
ENDROOT
BRANCH   3   5
ATOM      5  CA  SER A   3      25.896  31.455  13.749  0.00  0.00    +0.178 C 
BRANCH   5   6
ATOM      6  C   SER A   3      24.485  31.559  13.164  0.00  0.00    +0.243 C 
ATOM      7  O   SER A   3      23.648  30.705  13.507  0.00  0.00    -0.273 OA
ATOM      8  N   TYR A   4      24.273  32.544  12.335  0.00  0.00    -0.298 N 
ATOM      9  H   TYR A   4      25.063  33.203  12.182  0.00  0.00    +0.150 HD
BRANCH   8  10
ATOM     10  CA  TYR A   4      23.052  32.816  11.605  0.00  0.00    +0.141 C 
BRANCH  10  11
ATOM     11  C   TYR A   4      23.083  32.171  10.205  0.00  0.00    +0.227 C 
ATOM     12  O   TYR A   4      24.149  32.141   9.569  0.00  0.00    -0.286 OA
ENDBRANCH  10  11
BRANCH  10  13
ATOM     13  CB  TYR A   4      22.864  34.354  11.437  0.00  0.00    +0.054 C 
BRANCH  13  14
ATOM     14  CG  TYR A   4      22.541  35.005  12.757  0.00  0.00    -0.020 A 
ATOM     15  CD2 TYR A   4      21.338  34.809  13.422  0.00  0.00    -0.001 A 
ATOM     16  CE2 TYR A   4      21.079  35.454  14.643  0.00  0.00    +0.036 A 
ATOM     17  CZ  TYR A   4      22.052  36.280  15.178  0.00  0.00    +0.134 A 
ATOM     18  CE1 TYR A   4      23.247  36.526  14.516  0.00  0.00    +0.036 A 
ATOM     19  CD1 TYR A   4      23.500  35.852  13.314  0.00  0.00    -0.001 A 
BRANCH  17  20
ATOM     20  OH  TYR A   4      21.901  36.943  16.371  0.00  0.00    -0.506 OA
ATOM     21  HH  TYR A   4      22.628  36.678  16.989  0.00  0.00    +0.292 HD
ENDBRANCH  17  20
ENDBRANCH  13  14
ENDBRANCH  10  13
ENDBRANCH   8  10
ENDBRANCH   5   6
BRANCH   5  22
ATOM     22  CB  SER A   3      26.030  30.047  14.365  0.00  0.00    +0.166 C 
BRANCH  22  23
ATOM     23  OG  SER A   3      27.445  29.772  14.487  0.00  0.00    -0.380 OA
ATOM     24  H   SER A   3      27.572  28.873  14.881  0.00  0.00    +0.211 HD
ENDBRANCH  22  23
ENDBRANCH   5  22
ENDBRANCH   3   5
BRANCH   1  25
ATOM     25  CA  ASN A   2      25.856  33.815  16.740  0.00  0.00    +0.158 C 
BRANCH  25  28
ATOM     26  C   SER A   1      28.267  33.999  16.659  0.00  0.00    +0.241 C 
ATOM     27  O   SER A   1      28.514  33.240  17.606  0.00  0.00    -0.274 OA
ATOM     28  N   ASN A   2      27.096  34.409  16.222  0.00  0.00    -0.297 N 
ATOM     29  H   ASN A   2      27.047  35.160  15.504  0.00  0.00    +0.150 HD
BRANCH  26  30
ATOM     30  CA  SER A   1      29.467  34.704  16.036  0.00  0.00    +0.174 C 
BRANCH  30  31
ATOM     31  N   SER A   1      29.114  35.317  14.774  0.00  0.00    -0.236 NA
ATOM     32  H   SER A   1      29.083  36.355  14.724  0.00  0.00    +0.142 HD
ENDBRANCH  30  31
BRANCH  30  33
ATOM     33  CB  SER A   1      29.994  35.694  17.105  0.00  0.00    +0.163 C 
BRANCH  33  34
ATOM     34  OG  SER A   1      31.367  35.989  16.772  0.00  0.00    -0.380 OA
ATOM     35  H   SER A   1      31.738  36.622  17.437  0.00  0.00    +0.211 HD
ENDBRANCH  33  34
ENDBRANCH  30  33
ENDBRANCH  26  30
ENDBRANCH  25  28
BRANCH  25  36
ATOM     36  CB  ASN A   2      24.672  34.788  16.897  0.00  0.00    +0.114 C 
BRANCH  36  37
ATOM     37  CG  ASN A   2      24.994  35.911  17.868  0.00  0.00    +0.222 C 
ATOM     38  ND2 ASN A   2      26.163  35.777  18.504  0.00  0.00    -0.329 N 
ATOM     39 HD21 ASN A   2      26.462  36.491  19.198  0.00  0.00    +0.145 HD
ATOM     40 HD22 ASN A   2      26.773  34.958  18.305  0.00  0.00    +0.145 HD
ATOM     41  OD1 ASN A   2      24.175  36.850  18.022  0.00  0.00    -0.275 OA
ENDBRANCH  36  37
ENDBRANCH  25  36
ENDBRANCH   1  25
TORSDOF 17
REMARK  Name = ../refined-set-2016/1rnt/1rnt_pocket.pdb
REMARK  117 active torsions:
REMARK  status: ('A' for Active; 'I' for Inactive)
REMARK    1  A    between atoms: _1  and  _3
REMARK    2  A    between atoms: _3  and  _4
REMARK    3  A    between atoms: _3  and  _6
REMARK    4  A    between atoms: _6  and  _7
REMARK    5  A    between atoms: _9  and  _11
REMARK    6  A    between atoms: _11  and  _12
REMARK    7  A    between atoms: _11  and  _14
REMARK    8  A    between atoms: _14  and  _15
REMARK    9  A    between atoms: _20  and  _22
REMARK   10  A    between atoms: _22  and  _23
REMARK   11  A    between atoms: _22  and  _25
REMARK   12  A    between atoms: _25  and  _26
REMARK   13  A    between atoms: _28  and  _30
REMARK   14  A    between atoms: _30  and  _31
REMARK   15  A    between atoms: _30  and  _33
REMARK   16  A    between atoms: _33  and  _34
REMARK   17  A    between atoms: _39  and  _40
REMARK   18  A    between atoms: _42  and  _44
REMARK   19  A    between atoms: _44  and  _45
REMARK   20  A    between atoms: _44  and  _47
REMARK   21  A    between atoms: _47  and  _48
REMARK   22  A    between atoms: _53  and  _55
REMARK   23  A    between atoms: _55  and  _56
REMARK   24  A    between atoms: _55  and  _58
REMARK   25  A    between atoms: _58  and  _59
REMARK   26  A    between atoms: _59  and  _60
REMARK   27  A    between atoms: _60  and  _61
REMARK   28  A    between atoms: _61  and  _62
REMARK   29  A    between atoms: _66  and  _68
REMARK   30  A    between atoms: _68  and  _69
REMARK   31  A    between atoms: _68  and  _71
REMARK   32  A    between atoms: _71  and  _72
REMARK   33  A    between atoms: _77  and  _78
REMARK   34  A    between atoms: _80  and  _82
REMARK   35  A    between atoms: _82  and  _83
REMARK   36  A    between atoms: _82  and  _85
REMARK   37  A    between atoms: _85  and  _86
REMARK   38  A    between atoms: _91  and  _93
REMARK   39  A    between atoms: _93  and  _94
REMARK   40  A    between atoms: _93  and  _96
REMARK   41  A    between atoms: _96  and  _97
REMARK   42  A    between atoms: _102  and  _104
REMARK   43  A    between atoms: _104  and  _105
REMARK   44  A    between atoms: _104  and  _107
REMARK   45  A    between atoms: _107  and  _108
REMARK   46  A    between atoms: _113  and  _114
REMARK   47  A    between atoms: _116  and  _118
REMARK   48  A    between atoms: _118  and  _119
REMARK   49  A    between atoms: _118  and  _121
REMARK   50  A    between atoms: _121  and  _122
REMARK   51  A    between atoms: _122  and  _123
REMARK   52  A    between atoms: _126  and  _128
REMARK   53  A    between atoms: _128  and  _129
REMARK   54  A    between atoms: _131  and  _133
REMARK   55  A    between atoms: _133  and  _134
REMARK   56  A    between atoms: _133  and  _136
REMARK   57  A    between atoms: _136  and  _137
REMARK   58  A    between atoms: _143  and  _145
REMARK   59  A    between atoms: _145  and  _146
REMARK   60  A    between atoms: _145  and  _148
REMARK   61  A    between atoms: _148  and  _149
REMARK   62  A    between atoms: _155  and  _157
REMARK   63  A    between atoms: _157  and  _158
REMARK   64  A    between atoms: _157  and  _160
REMARK   65  A    between atoms: _160  and  _161
REMARK   66  A    between atoms: _166  and  _167
REMARK   67  A    between atoms: _169  and  _171
REMARK   68  A    between atoms: _171  and  _172
REMARK   69  A    between atoms: _171  and  _174
REMARK   70  A    between atoms: _175  and  _176
REMARK   71  A    between atoms: _179  and  _181
REMARK   72  A    between atoms: _181  and  _182
REMARK   73  A    between atoms: _181  and  _184
REMARK   74  A    between atoms: _184  and  _185
REMARK   75  A    between atoms: _196  and  _197
REMARK   76  A    between atoms: _203  and  _204
REMARK   77  A    between atoms: _209  and  _211
REMARK   78  A    between atoms: _211  and  _212
REMARK   79  A    between atoms: _214  and  _216
REMARK   80  A    between atoms: _216  and  _217
REMARK   81  A    between atoms: _220  and  _222
REMARK   82  A    between atoms: _222  and  _223
REMARK   83  A    between atoms: _222  and  _225
REMARK   84  A    between atoms: _225  and  _226
REMARK   85  A    between atoms: _226  and  _227
REMARK   86  A    between atoms: _227  and  _228
REMARK   87  A    between atoms: _237  and  _239
REMARK   88  A    between atoms: _239  and  _240
REMARK   89  A    between atoms: _239  and  _242
REMARK   90  A    between atoms: _242  and  _243
REMARK   91  A    between atoms: _246  and  _248
REMARK   92  A    between atoms: _248  and  _249
REMARK   93  A    between atoms: _248  and  _251
REMARK   94  A    between atoms: _251  and  _252
REMARK   95  A    between atoms: _257  and  _259
REMARK   96  A    between atoms: _259  and  _260
REMARK   97  A    between atoms: _263  and  _265
REMARK   98  A    between atoms: _265  and  _266
REMARK   99  A    between atoms: _265  and  _268
REMARK  100  A    between atoms: _268  and  _269
REMARK  101  A    between atoms: _271  and  _273
REMARK  102  A    between atoms: _273  and  _274
REMARK  103  A    between atoms: _276  and  _278
REMARK  104  A    between atoms: _278  and  _279
REMARK  105  A    between atoms: _278  and  _281
REMARK  106  A    between atoms: _281  and  _282
REMARK  107  A    between atoms: _287  and  _289
REMARK  108  A    between atoms: _289  and  _290
REMARK  109  A    between atoms: _289  and  _292
REMARK  110  A    between atoms: _292  and  _293
REMARK  111  A    between atoms: _298  and  _300
REMARK  112  A    between atoms: _300  and  _301
REMARK  113  A    between atoms: _300  and  _303
REMARK  114  A    between atoms: _303  and  _304
REMARK  115  A    between atoms: _310  and  _312
REMARK  116  A    between atoms: _312  and  _313
REMARK  117  A    between atoms: _312  and  _315
REMARK                            x       y       z     vdW  Elec       q    Type
REMARK                         _______ _______ _______ _____ _____    ______ ____
ROOT
ATOM      1  C   ASN A   4      11.010  29.240  19.632  0.00  0.00    +0.241 C 
ATOM      2  O   ASN A   4      10.130  28.447  20.109  0.00  0.00    -0.273 OA
ATOM      3  N   ASN A   5      10.829  30.512  19.374  0.00  0.00    -0.297 N 
ATOM      4  H   ASN A   5      11.604  31.059  18.948  0.00  0.00    +0.150 HD
ENDROOT
BRANCH   3   5
ATOM      5  CA  ASN A   5       9.563  31.181  19.671  0.00  0.00    +0.158 C 
BRANCH   5   6
ATOM      6  C   ASN A   5       9.274  31.124  21.183  0.00  0.00    +0.241 C 
ATOM      7  N   TYR A   6      10.236  31.361  22.021  0.00  0.00    -0.297 N 
ATOM      8  H   TYR A   6      11.200  31.538  21.673  0.00  0.00    +0.150 HD
ATOM      9  O   ASN A   5       8.075  30.856  21.510  0.00  0.00    -0.273 OA
BRANCH   7  10
ATOM     10  CA  TYR A   6       9.956  31.378  23.478  0.00  0.00    +0.153 C 
BRANCH  10  11
ATOM     11  C   TYR A   6       8.863  32.410  23.735  0.00  0.00    +0.241 C 
ATOM     12  O   TYR A   6       8.010  32.190  24.607  0.00  0.00    -0.273 OA
ATOM     13  N   GLU A   7       8.931  33.537  23.063  0.00  0.00    -0.297 N 
ATOM     14  H   GLU A   7       9.706  33.643  22.377  0.00  0.00    +0.150 HD
BRANCH  13  15
ATOM     15  CA  GLU A   7       8.006  34.644  23.207  0.00  0.00    +0.149 C 
BRANCH  15  16
ATOM     16  C   GLU A   7       6.551  34.267  23.044  0.00  0.00    +0.241 C 
ATOM     17  O   GLU A   7       5.639  34.877  23.626  0.00  0.00    -0.273 OA
ATOM     18  N   GLY A   8       6.284  33.272  22.209  0.00  0.00    -0.295 N 
ATOM     19  H   GLY A   8       7.075  32.819  21.708  0.00  0.00    +0.150 HD
BRANCH  18  20
ATOM     20  CA  GLY A   8       4.955  32.792  21.965  0.00  0.00    +0.176 C 
BRANCH  20  21
ATOM     21  C   GLY A   8       4.128  33.593  20.983  0.00  0.00    +0.243 C 
ATOM     22  O   GLY A   8       2.914  33.759  21.168  0.00  0.00    -0.273 OA
ATOM     23  N   PHE A   9       4.818  34.077  19.979  0.00  0.00    -0.298 N 
ATOM     24  H   PHE A   9       5.842  33.895  19.979  0.00  0.00    +0.150 HD
BRANCH  23  25
ATOM     25  CA  PHE A   9       4.286  34.843  18.869  0.00  0.00    +0.141 C 
BRANCH  25  26
ATOM     26  C   PHE A   9       3.375  33.911  18.088  0.00  0.00    +0.227 C 
ATOM     27  O   PHE A   9       3.729  32.786  17.704  0.00  0.00    -0.286 OA
ENDBRANCH  25  26
BRANCH  25  28
ATOM     28  CB  PHE A   9       5.414  35.431  18.010  0.00  0.00    +0.054 C 
BRANCH  28  29
ATOM     29  CG  PHE A   9       6.241  36.522  18.590  0.00  0.00    -0.020 A 
ATOM     30  CD2 PHE A   9       5.561  37.662  19.125  0.00  0.00    -0.004 A 
ATOM     31  CE2 PHE A   9       6.253  38.711  19.664  0.00  0.00    -0.000 A 
ATOM     32  CZ  PHE A   9       7.663  38.661  19.712  0.00  0.00    -0.000 A 
ATOM     33  CE1 PHE A   9       8.346  37.565  19.211  0.00  0.00    -0.000 A 
ATOM     34  CD1 PHE A   9       7.623  36.522  18.608  0.00  0.00    -0.004 A 
ENDBRANCH  28  29
ENDBRANCH  25  28
ENDBRANCH  23  25
ENDBRANCH  20  21
ENDBRANCH  18  20
ENDBRANCH  15  16
BRANCH  15  35
ATOM     35  CB  GLU A   7       8.342  35.767  22.197  0.00  0.00    +0.041 C 
BRANCH  35  36
ATOM     36  CG  GLU A   7       9.515  36.644  22.583  0.00  0.00    +0.116 C 
BRANCH  36  37
ATOM     37  CD  GLU A   7      10.858  35.983  22.581  0.00  0.00    +0.365 C 
ATOM     38  OE2 GLU A   7      11.700  36.569  23.247  0.00  0.00    -0.246 OA
ATOM     39  OE1 GLU A   7      11.061  34.946  21.938  0.00  0.00    -0.246 OA
ENDBRANCH  36  37
ENDBRANCH  35  36
ENDBRANCH  15  35
ENDBRANCH  13  15
ENDBRANCH  10  11
BRANCH  10  40
ATOM     40  CB  TYR A   6      11.167  31.766  24.306  0.00  0.00    +0.055 C 
BRANCH  40  41
ATOM     41  CG  TYR A   6      12.420  30.950  24.223  0.00  0.00    -0.020 A 
ATOM     42  CD2 TYR A   6      12.397  29.526  24.207  0.00  0.00    -0.001 A 
ATOM     43  CE2 TYR A   6      13.606  28.844  24.137  0.00  0.00    +0.036 A 
ATOM     44  CZ  TYR A   6      14.819  29.522  24.107  0.00  0.00    +0.134 A 
ATOM     45  CE1 TYR A   6      14.851  30.915  24.110  0.00  0.00    +0.036 A 
ATOM     46  CD1 TYR A   6      13.652  31.603  24.188  0.00  0.00    -0.001 A 
BRANCH  44  47
ATOM     47  OH  TYR A   6      16.019  28.880  24.006  0.00  0.00    -0.506 OA
ATOM     48  HH  TYR A   6      15.870  27.901  24.014  0.00  0.00    +0.292 HD
ENDBRANCH  44  47
ENDBRANCH  40  41
ENDBRANCH  10  40
ENDBRANCH   7  10
ENDBRANCH   5   6
BRANCH   5  49
ATOM     49  CB  ASN A   5       8.359  30.613  18.919  0.00  0.00    +0.114 C 
BRANCH  49  50
ATOM     50  CG  ASN A   5       7.301  31.668  18.689  0.00  0.00    +0.222 C 
ATOM     51  OD1 ASN A   5       7.594  32.829  18.977  0.00  0.00    -0.275 OA
ATOM     52  ND2 ASN A   5       6.106  31.276  18.227  0.00  0.00    -0.329 N 
ATOM     53 HD21 ASN A   5       5.347  31.974  18.089  0.00  0.00    +0.145 HD
ATOM     54 HD22 ASN A   5       5.937  30.274  18.006  0.00  0.00    +0.145 HD
ENDBRANCH  49  50
ENDBRANCH   5  49
ENDBRANCH   3   5
BRANCH   1  55
ATOM     55  CA  ASN A   4      12.348  28.604  19.321  0.00  0.00    +0.158 C 
BRANCH  55  57
ATOM     56  C   TYR A   3      13.010  29.530  17.166  0.00  0.00    +0.241 C 
ATOM     57  N   ASN A   4      13.223  29.418  18.460  0.00  0.00    -0.297 N 
ATOM     58  H   ASN A   4      14.030  29.917  18.886  0.00  0.00    +0.150 HD
ATOM     59  O   TYR A   3      12.093  28.976  16.550  0.00  0.00    -0.273 OA
BRANCH  56  60
ATOM     60  CA  TYR A   3      14.110  30.353  16.480  0.00  0.00    +0.153 C 
BRANCH  60  63
ATOM     61  C   LYS A   2      16.107  29.091  15.847  0.00  0.00    +0.241 C 
ATOM     62  O   LYS A   2      16.731  29.624  16.788  0.00  0.00    -0.273 OA
ATOM     63  N   TYR A   3      14.845  29.356  15.622  0.00  0.00    -0.297 N 
ATOM     64  H   TYR A   3      14.346  28.875  14.846  0.00  0.00    +0.150 HD
BRANCH  61  65
ATOM     65  CA  LYS A   2      16.724  28.043  14.925  0.00  0.00    +0.149 C 
BRANCH  65  67
ATOM     66  C   HIS A   1      18.426  29.391  13.847  0.00  0.00    +0.239 C 
ATOM     67  N   LYS A   2      18.071  28.320  14.506  0.00  0.00    -0.297 N 
ATOM     68  H   LYS A   2      18.808  27.625  14.742  0.00  0.00    +0.150 HD
ATOM     69  O   HIS A   1      17.610  30.264  13.521  0.00  0.00    -0.274 OA
BRANCH  66  70
ATOM     70  CA  HIS A   1      19.890  29.550  13.453  0.00  0.00    +0.151 C 
BRANCH  70  71
ATOM     71  N   HIS A   1      19.859  30.635  12.425  0.00  0.00    -0.238 NA
ATOM     72  H   HIS A   1      19.204  31.436  12.528  0.00  0.00    +0.142 HD
ENDBRANCH  70  71
BRANCH  70  73
ATOM     73  CB  HIS A   1      20.768  29.768  14.668  0.00  0.00    +0.074 C 
BRANCH  73  74
ATOM     74  CG  HIS A   1      20.401  30.853  15.628  0.00  0.00    +0.082 A 
ATOM     75  ND1 HIS A   1      19.226  30.872  16.361  0.00  0.00    -0.227 NA
ATOM     76  CE1 HIS A   1      19.197  31.936  17.134  0.00  0.00    +0.199 A 
ATOM     77  NE2 HIS A   1      20.335  32.611  16.938  0.00  0.00    -0.221 NA
ATOM     78  CD2 HIS A   1      21.107  31.932  16.038  0.00  0.00    +0.115 A 
ENDBRANCH  73  74
ENDBRANCH  70  73
ENDBRANCH  66  70
ENDBRANCH  65  67
BRANCH  65  79
ATOM     79  CB  LYS A   2      16.706  26.686  15.742  0.00  0.00    +0.029 C 
BRANCH  79  80
ATOM     80  CG  LYS A   2      15.254  26.195  15.719  0.00  0.00    +0.000 C 
BRANCH  80  81
ATOM     81  CD  LYS A   2      15.137  24.796  16.355  0.00  0.00    -0.024 C 
BRANCH  81  82
ATOM     82  CE  LYS A   2      13.648  24.581  16.714  0.00  0.00    -0.086 C 
BRANCH  82  83
ATOM     83  NZ  LYS A   2      13.403  23.105  16.921  0.00  0.00    +0.380 N 
ATOM     84  HZ1 LYS A   2      14.005  22.760  17.695  0.00  0.00    -0.089 HD
ATOM     85  HZ2 LYS A   2      12.403  22.951  17.163  0.00  0.00    -0.089 HD
ATOM     86  HZ3 LYS A   2      13.632  22.591  16.047  0.00  0.00    -0.089 HD
ENDBRANCH  82  83
ENDBRANCH  81  82
ENDBRANCH  80  81
ENDBRANCH  79  80
ENDBRANCH  65  79
ENDBRANCH  61  65
ENDBRANCH  60  63
BRANCH  60  87
ATOM     87  CB  TYR A   3      13.685  31.586  15.717  0.00  0.00    +0.055 C 
BRANCH  87  88
ATOM     88  CG  TYR A   3      12.805  32.519  16.530  0.00  0.00    -0.020 A 
ATOM     89  CD2 TYR A   3      13.398  33.365  17.448  0.00  0.00    -0.001 A 
ATOM     90  CE2 TYR A   3      12.579  34.178  18.254  0.00  0.00    +0.036 A 
ATOM     91  CZ  TYR A   3      11.217  34.114  18.106  0.00  0.00    +0.134 A 
ATOM     92  CE1 TYR A   3      10.596  33.287  17.164  0.00  0.00    +0.036 A 
ATOM     93  CD1 TYR A   3      11.421  32.462  16.391  0.00  0.00    -0.001 A 
BRANCH  91  94
ATOM     94  OH  TYR A   3      10.433  34.941  18.857  0.00  0.00    -0.506 OA
ATOM     95  HH  TYR A   3      10.589  34.759  19.818  0.00  0.00    +0.292 HD
ENDBRANCH  91  94
ENDBRANCH  87  88
ENDBRANCH  60  87
ENDBRANCH  56  60
ENDBRANCH  55  57
BRANCH  55  96
ATOM     96  CB  ASN A   4      13.089  28.207  20.599  0.00  0.00    +0.114 C 
BRANCH  96  97
ATOM     97  CG  ASN A   4      14.300  27.352  20.345  0.00  0.00    +0.222 C 
ATOM     98  OD1 ASN A   4      15.469  27.812  20.383  0.00  0.00    -0.275 OA
ATOM     99  ND2 ASN A   4      14.050  26.072  20.089  0.00  0.00    -0.329 N 
ATOM    100 HD21 ASN A   4      13.069  25.728  20.066  0.00  0.00    +0.145 HD
ATOM    101 HD22 ASN A   4      14.836  25.414  19.912  0.00  0.00    +0.145 HD
ENDBRANCH  96  97
ENDBRANCH  55  96
ENDBRANCH   1  55
TORSDOF 40
REMARK  Name = ../refined-set-2016/1rnt/1rnt_pocket.pdb
REMARK  117 active torsions:
REMARK  status: ('A' for Active; 'I' for Inactive)
REMARK    1  A    between atoms: _1  and  _3
REMARK    2  A    between atoms: _3  and  _4
REMARK    3  A    between atoms: _3  and  _6
REMARK    4  A    between atoms: _6  and  _7
REMARK    5  A    between atoms: _9  and  _11
REMARK    6  A    between atoms: _11  and  _12
REMARK    7  A    between atoms: _11  and  _14
REMARK    8  A    between atoms: _14  and  _15
REMARK    9  A    between atoms: _20  and  _22
REMARK   10  A    between atoms: _22  and  _23
REMARK   11  A    between atoms: _22  and  _25
REMARK   12  A    between atoms: _25  and  _26
REMARK   13  A    between atoms: _28  and  _30
REMARK   14  A    between atoms: _30  and  _31
REMARK   15  A    between atoms: _30  and  _33
REMARK   16  A    between atoms: _33  and  _34
REMARK   17  A    between atoms: _39  and  _40
REMARK   18  A    between atoms: _42  and  _44
REMARK   19  A    between atoms: _44  and  _45
REMARK   20  A    between atoms: _44  and  _47
REMARK   21  A    between atoms: _47  and  _48
REMARK   22  A    between atoms: _53  and  _55
REMARK   23  A    between atoms: _55  and  _56
REMARK   24  A    between atoms: _55  and  _58
REMARK   25  A    between atoms: _58  and  _59
REMARK   26  A    between atoms: _59  and  _60
REMARK   27  A    between atoms: _60  and  _61
REMARK   28  A    between atoms: _61  and  _62
REMARK   29  A    between atoms: _66  and  _68
REMARK   30  A    between atoms: _68  and  _69
REMARK   31  A    between atoms: _68  and  _71
REMARK   32  A    between atoms: _71  and  _72
REMARK   33  A    between atoms: _77  and  _78
REMARK   34  A    between atoms: _80  and  _82
REMARK   35  A    between atoms: _82  and  _83
REMARK   36  A    between atoms: _82  and  _85
REMARK   37  A    between atoms: _85  and  _86
REMARK   38  A    between atoms: _91  and  _93
REMARK   39  A    between atoms: _93  and  _94
REMARK   40  A    between atoms: _93  and  _96
REMARK   41  A    between atoms: _96  and  _97
REMARK   42  A    between atoms: _102  and  _104
REMARK   43  A    between atoms: _104  and  _105
REMARK   44  A    between atoms: _104  and  _107
REMARK   45  A    between atoms: _107  and  _108
REMARK   46  A    between atoms: _113  and  _114
REMARK   47  A    between atoms: _116  and  _118
REMARK   48  A    between atoms: _118  and  _119
REMARK   49  A    between atoms: _118  and  _121
REMARK   50  A    between atoms: _121  and  _122
REMARK   51  A    between atoms: _122  and  _123
REMARK   52  A    between atoms: _126  and  _128
REMARK   53  A    between atoms: _128  and  _129
REMARK   54  A    between atoms: _131  and  _133
REMARK   55  A    between atoms: _133  and  _134
REMARK   56  A    between atoms: _133  and  _136
REMARK   57  A    between atoms: _136  and  _137
REMARK   58  A    between atoms: _143  and  _145
REMARK   59  A    between atoms: _145  and  _146
REMARK   60  A    between atoms: _145  and  _148
REMARK   61  A    between atoms: _148  and  _149
REMARK   62  A    between atoms: _155  and  _157
REMARK   63  A    between atoms: _157  and  _158
REMARK   64  A    between atoms: _157  and  _160
REMARK   65  A    between atoms: _160  and  _161
REMARK   66  A    between atoms: _166  and  _167
REMARK   67  A    between atoms: _169  and  _171
REMARK   68  A    between atoms: _171  and  _172
REMARK   69  A    between atoms: _171  and  _174
REMARK   70  A    between atoms: _175  and  _176
REMARK   71  A    between atoms: _179  and  _181
REMARK   72  A    between atoms: _181  and  _182
REMARK   73  A    between atoms: _181  and  _184
REMARK   74  A    between atoms: _184  and  _185
REMARK   75  A    between atoms: _196  and  _197
REMARK   76  A    between atoms: _203  and  _204
REMARK   77  A    between atoms: _209  and  _211
REMARK   78  A    between atoms: _211  and  _212
REMARK   79  A    between atoms: _214  and  _216
REMARK   80  A    between atoms: _216  and  _217
REMARK   81  A    between atoms: _220  and  _222
REMARK   82  A    between atoms: _222  and  _223
REMARK   83  A    between atoms: _222  and  _225
REMARK   84  A    between atoms: _225  and  _226
REMARK   85  A    between atoms: _226  and  _227
REMARK   86  A    between atoms: _227  and  _228
REMARK   87  A    between atoms: _237  and  _239
REMARK   88  A    between atoms: _239  and  _240
REMARK   89  A    between atoms: _239  and  _242
REMARK   90  A    between atoms: _242  and  _243
REMARK   91  A    between atoms: _246  and  _248
REMARK   92  A    between atoms: _248  and  _249
REMARK   93  A    between atoms: _248  and  _251
REMARK   94  A    between atoms: _251  and  _252
REMARK   95  A    between atoms: _257  and  _259
REMARK   96  A    between atoms: _259  and  _260
REMARK   97  A    between atoms: _263  and  _265
REMARK   98  A    between atoms: _265  and  _266
REMARK   99  A    between atoms: _265  and  _268
REMARK  100  A    between atoms: _268  and  _269
REMARK  101  A    between atoms: _271  and  _273
REMARK  102  A    between atoms: _273  and  _274
REMARK  103  A    between atoms: _276  and  _278
REMARK  104  A    between atoms: _278  and  _279
REMARK  105  A    between atoms: _278  and  _281
REMARK  106  A    between atoms: _281  and  _282
REMARK  107  A    between atoms: _287  and  _289
REMARK  108  A    between atoms: _289  and  _290
REMARK  109  A    between atoms: _289  and  _292
REMARK  110  A    between atoms: _292  and  _293
REMARK  111  A    between atoms: _298  and  _300
REMARK  112  A    between atoms: _300  and  _301
REMARK  113  A    between atoms: _300  and  _303
REMARK  114  A    between atoms: _303  and  _304
REMARK  115  A    between atoms: _310  and  _312
REMARK  116  A    between atoms: _312  and  _313
REMARK  117  A    between atoms: _312  and  _315
REMARK                            x       y       z     vdW  Elec       q    Type
REMARK                         _______ _______ _______ _____ _____    ______ ____
ROOT
ATOM      1  CB  PHE A   1       4.160  32.860  13.386  0.00  0.00    +0.051 C 
ENDROOT
BRANCH   1   2
ATOM      2  CG  PHE A   1       5.261  33.641  14.018  0.00  0.00    -0.020 A 
ATOM      3  CD2 PHE A   1       6.352  32.980  14.612  0.00  0.00    -0.004 A 
ATOM      4  CE2 PHE A   1       7.411  33.729  15.164  0.00  0.00    -0.000 A 
ATOM      5  CZ  PHE A   1       7.364  35.133  15.091  0.00  0.00    -0.000 A 
ATOM      6  CE1 PHE A   1       6.282  35.782  14.524  0.00  0.00    -0.000 A 
ATOM      7  CD1 PHE A   1       5.252  35.038  13.951  0.00  0.00    -0.004 A 
ENDBRANCH   1   2
BRANCH   1   8
ATOM      8  CA  PHE A   1       2.721  33.225  13.574  0.00  0.00    +0.137 C 
BRANCH   8   9
ATOM      9  N   PHE A   1       2.321  33.078  15.004  0.00  0.00    -0.239 NA
ATOM     10  H   PHE A   1       2.734  32.308  15.568  0.00  0.00    +0.142 HD
ENDBRANCH   8   9
BRANCH   8  11
ATOM     11  C   PHE A   1       1.732  32.369  12.774  0.00  0.00    +0.224 C 
ATOM     12  O   PHE A   1       1.315  31.335  13.319  0.00  0.00    -0.287 OA
ENDBRANCH   8  11
ENDBRANCH   1   8
TORSDOF 4
REMARK  Name = ../refined-set-2016/1rnt/1rnt_pocket.pdb
REMARK  117 active torsions:
REMARK  status: ('A' for Active; 'I' for Inactive)
REMARK    1  A    between atoms: _1  and  _3
REMARK    2  A    between atoms: _3  and  _4
REMARK    3  A    between atoms: _3  and  _6
REMARK    4  A    between atoms: _6  and  _7
REMARK    5  A    between atoms: _9  and  _11
REMARK    6  A    between atoms: _11  and  _12
REMARK    7  A    between atoms: _11  and  _14
REMARK    8  A    between atoms: _14  and  _15
REMARK    9  A    between atoms: _20  and  _22
REMARK   10  A    between atoms: _22  and  _23
REMARK   11  A    between atoms: _22  and  _25
REMARK   12  A    between atoms: _25  and  _26
REMARK   13  A    between atoms: _28  and  _30
REMARK   14  A    between atoms: _30  and  _31
REMARK   15  A    between atoms: _30  and  _33
REMARK   16  A    between atoms: _33  and  _34
REMARK   17  A    between atoms: _39  and  _40
REMARK   18  A    between atoms: _42  and  _44
REMARK   19  A    between atoms: _44  and  _45
REMARK   20  A    between atoms: _44  and  _47
REMARK   21  A    between atoms: _47  and  _48
REMARK   22  A    between atoms: _53  and  _55
REMARK   23  A    between atoms: _55  and  _56
REMARK   24  A    between atoms: _55  and  _58
REMARK   25  A    between atoms: _58  and  _59
REMARK   26  A    between atoms: _59  and  _60
REMARK   27  A    between atoms: _60  and  _61
REMARK   28  A    between atoms: _61  and  _62
REMARK   29  A    between atoms: _66  and  _68
REMARK   30  A    between atoms: _68  and  _69
REMARK   31  A    between atoms: _68  and  _71
REMARK   32  A    between atoms: _71  and  _72
REMARK   33  A    between atoms: _77  and  _78
REMARK   34  A    between atoms: _80  and  _82
REMARK   35  A    between atoms: _82  and  _83
REMARK   36  A    between atoms: _82  and  _85
REMARK   37  A    between atoms: _85  and  _86
REMARK   38  A    between atoms: _91  and  _93
REMARK   39  A    between atoms: _93  and  _94
REMARK   40  A    between atoms: _93  and  _96
REMARK   41  A    between atoms: _96  and  _97
REMARK   42  A    between atoms: _102  and  _104
REMARK   43  A    between atoms: _104  and  _105
REMARK   44  A    between atoms: _104  and  _107
REMARK   45  A    between atoms: _107  and  _108
REMARK   46  A    between atoms: _113  and  _114
REMARK   47  A    between atoms: _116  and  _118
REMARK   48  A    between atoms: _118  and  _119
REMARK   49  A    between atoms: _118  and  _121
REMARK   50  A    between atoms: _121  and  _122
REMARK   51  A    between atoms: _122  and  _123
REMARK   52  A    between atoms: _126  and  _128
REMARK   53  A    between atoms: _128  and  _129
REMARK   54  A    between atoms: _131  and  _133
REMARK   55  A    between atoms: _133  and  _134
REMARK   56  A    between atoms: _133  and  _136
REMARK   57  A    between atoms: _136  and  _137
REMARK   58  A    between atoms: _143  and  _145
REMARK   59  A    between atoms: _145  and  _146
REMARK   60  A    between atoms: _145  and  _148
REMARK   61  A    between atoms: _148  and  _149
REMARK   62  A    between atoms: _155  and  _157
REMARK   63  A    between atoms: _157  and  _158
REMARK   64  A    between atoms: _157  and  _160
REMARK   65  A    between atoms: _160  and  _161
REMARK   66  A    between atoms: _166  and  _167
REMARK   67  A    between atoms: _169  and  _171
REMARK   68  A    between atoms: _171  and  _172
REMARK   69  A    between atoms: _171  and  _174
REMARK   70  A    between atoms: _175  and  _176
REMARK   71  A    between atoms: _179  and  _181
REMARK   72  A    between atoms: _181  and  _182
REMARK   73  A    between atoms: _181  and  _184
REMARK   74  A    between atoms: _184  and  _185
REMARK   75  A    between atoms: _196  and  _197
REMARK   76  A    between atoms: _203  and  _204
REMARK   77  A    between atoms: _209  and  _211
REMARK   78  A    between atoms: _211  and  _212
REMARK   79  A    between atoms: _214  and  _216
REMARK   80  A    between atoms: _216  and  _217
REMARK   81  A    between atoms: _220  and  _222
REMARK   82  A    between atoms: _222  and  _223
REMARK   83  A    between atoms: _222  and  _225
REMARK   84  A    between atoms: _225  and  _226
REMARK   85  A    between atoms: _226  and  _227
REMARK   86  A    between atoms: _227  and  _228
REMARK   87  A    between atoms: _237  and  _239
REMARK   88  A    between atoms: _239  and  _240
REMARK   89  A    between atoms: _239  and  _242
REMARK   90  A    between atoms: _242  and  _243
REMARK   91  A    between atoms: _246  and  _248
REMARK   92  A    between atoms: _248  and  _249
REMARK   93  A    between atoms: _248  and  _251
REMARK   94  A    between atoms: _251  and  _252
REMARK   95  A    between atoms: _257  and  _259
REMARK   96  A    between atoms: _259  and  _260
REMARK   97  A    between atoms: _263  and  _265
REMARK   98  A    between atoms: _265  and  _266
REMARK   99  A    between atoms: _265  and  _268
REMARK  100  A    between atoms: _268  and  _269
REMARK  101  A    between atoms: _271  and  _273
REMARK  102  A    between atoms: _273  and  _274
REMARK  103  A    between atoms: _276  and  _278
REMARK  104  A    between atoms: _278  and  _279
REMARK  105  A    between atoms: _278  and  _281
REMARK  106  A    between atoms: _281  and  _282
REMARK  107  A    between atoms: _287  and  _289
REMARK  108  A    between atoms: _289  and  _290
REMARK  109  A    between atoms: _289  and  _292
REMARK  110  A    between atoms: _292  and  _293
REMARK  111  A    between atoms: _298  and  _300
REMARK  112  A    between atoms: _300  and  _301
REMARK  113  A    between atoms: _300  and  _303
REMARK  114  A    between atoms: _303  and  _304
REMARK  115  A    between atoms: _310  and  _312
REMARK  116  A    between atoms: _312  and  _313
REMARK  117  A    between atoms: _312  and  _315
REMARK                            x       y       z     vdW  Elec       q    Type
REMARK                         _______ _______ _______ _____ _____    ______ ____
ROOT
ATOM      1  CG  TYR A   1       9.222  29.633  13.332  0.00  0.00    -0.020 A 
ATOM      2  CD2 TYR A   1       8.540  29.375  14.511  0.00  0.00    -0.001 A 
ATOM      3  CE2 TYR A   1       7.149  29.208  14.491  0.00  0.00    +0.036 A 
ATOM      4  CZ  TYR A   1       6.482  29.298  13.268  0.00  0.00    +0.134 A 
ATOM      5  CE1 TYR A   1       7.149  29.577  12.065  0.00  0.00    +0.036 A 
ATOM      6  CD1 TYR A   1       8.540  29.727  12.105  0.00  0.00    -0.001 A 
ENDROOT
BRANCH   4   7
ATOM      7  OH  TYR A   1       5.115  29.092  13.297  0.00  0.00    -0.506 OA
ATOM      8  HH  TYR A   1       4.750  29.179  12.381  0.00  0.00    +0.292 HD
ENDBRANCH   4   7
BRANCH   1   9
ATOM      9  CB  TYR A   1      10.719  29.816  13.329  0.00  0.00    +0.051 C 
BRANCH   9  10
ATOM     10  CA  TYR A   1      11.411  28.801  12.399  0.00  0.00    +0.137 C 
BRANCH  10  11
ATOM     11  N   TYR A   1      11.045  27.427  12.795  0.00  0.00    -0.239 NA
ATOM     12  H   TYR A   1      11.193  27.146  13.785  0.00  0.00    +0.142 HD
ENDBRANCH  10  11
BRANCH  10  13
ATOM     13  C   TYR A   1      12.920  28.992  12.532  0.00  0.00    +0.224 C 
ATOM     14  O   TYR A   1      13.548  28.311  13.347  0.00  0.00    -0.287 OA
ENDBRANCH  10  13
ENDBRANCH   9  10
ENDBRANCH   1   9
TORSDOF 5
REMARK  Name = ../refined-set-2016/1rnt/1rnt_pocket.pdb
REMARK  117 active torsions:
REMARK  status: ('A' for Active; 'I' for Inactive)
REMARK    1  A    between atoms: _1  and  _3
REMARK    2  A    between atoms: _3  and  _4
REMARK    3  A    between atoms: _3  and  _6
REMARK    4  A    between atoms: _6  and  _7
REMARK    5  A    between atoms: _9  and  _11
REMARK    6  A    between atoms: _11  and  _12
REMARK    7  A    between atoms: _11  and  _14
REMARK    8  A    between atoms: _14  and  _15
REMARK    9  A    between atoms: _20  and  _22
REMARK   10  A    between atoms: _22  and  _23
REMARK   11  A    between atoms: _22  and  _25
REMARK   12  A    between atoms: _25  and  _26
REMARK   13  A    between atoms: _28  and  _30
REMARK   14  A    between atoms: _30  and  _31
REMARK   15  A    between atoms: _30  and  _33
REMARK   16  A    between atoms: _33  and  _34
REMARK   17  A    between atoms: _39  and  _40
REMARK   18  A    between atoms: _42  and  _44
REMARK   19  A    between atoms: _44  and  _45
REMARK   20  A    between atoms: _44  and  _47
REMARK   21  A    between atoms: _47  and  _48
REMARK   22  A    between atoms: _53  and  _55
REMARK   23  A    between atoms: _55  and  _56
REMARK   24  A    between atoms: _55  and  _58
REMARK   25  A    between atoms: _58  and  _59
REMARK   26  A    between atoms: _59  and  _60
REMARK   27  A    between atoms: _60  and  _61
REMARK   28  A    between atoms: _61  and  _62
REMARK   29  A    between atoms: _66  and  _68
REMARK   30  A    between atoms: _68  and  _69
REMARK   31  A    between atoms: _68  and  _71
REMARK   32  A    between atoms: _71  and  _72
REMARK   33  A    between atoms: _77  and  _78
REMARK   34  A    between atoms: _80  and  _82
REMARK   35  A    between atoms: _82  and  _83
REMARK   36  A    between atoms: _82  and  _85
REMARK   37  A    between atoms: _85  and  _86
REMARK   38  A    between atoms: _91  and  _93
REMARK   39  A    between atoms: _93  and  _94
REMARK   40  A    between atoms: _93  and  _96
REMARK   41  A    between atoms: _96  and  _97
REMARK   42  A    between atoms: _102  and  _104
REMARK   43  A    between atoms: _104  and  _105
REMARK   44  A    between atoms: _104  and  _107
REMARK   45  A    between atoms: _107  and  _108
REMARK   46  A    between atoms: _113  and  _114
REMARK   47  A    between atoms: _116  and  _118
REMARK   48  A    between atoms: _118  and  _119
REMARK   49  A    between atoms: _118  and  _121
REMARK   50  A    between atoms: _121  and  _122
REMARK   51  A    between atoms: _122  and  _123
REMARK   52  A    between atoms: _126  and  _128
REMARK   53  A    between atoms: _128  and  _129
REMARK   54  A    between atoms: _131  and  _133
REMARK   55  A    between atoms: _133  and  _134
REMARK   56  A    between atoms: _133  and  _136
REMARK   57  A    between atoms: _136  and  _137
REMARK   58  A    between atoms: _143  and  _145
REMARK   59  A    between atoms: _145  and  _146
REMARK   60  A    between atoms: _145  and  _148
REMARK   61  A    between atoms: _148  and  _149
REMARK   62  A    between atoms: _155  and  _157
REMARK   63  A    between atoms: _157  and  _158
REMARK   64  A    between atoms: _157  and  _160
REMARK   65  A    between atoms: _160  and  _161
REMARK   66  A    between atoms: _166  and  _167
REMARK   67  A    between atoms: _169  and  _171
REMARK   68  A    between atoms: _171  and  _172
REMARK   69  A    between atoms: _171  and  _174
REMARK   70  A    between atoms: _175  and  _176
REMARK   71  A    between atoms: _179  and  _181
REMARK   72  A    between atoms: _181  and  _182
REMARK   73  A    between atoms: _181  and  _184
REMARK   74  A    between atoms: _184  and  _185
REMARK   75  A    between atoms: _196  and  _197
REMARK   76  A    between atoms: _203  and  _204
REMARK   77  A    between atoms: _209  and  _211
REMARK   78  A    between atoms: _211  and  _212
REMARK   79  A    between atoms: _214  and  _216
REMARK   80  A    between atoms: _216  and  _217
REMARK   81  A    between atoms: _220  and  _222
REMARK   82  A    between atoms: _222  and  _223
REMARK   83  A    between atoms: _222  and  _225
REMARK   84  A    between atoms: _225  and  _226
REMARK   85  A    between atoms: _226  and  _227
REMARK   86  A    between atoms: _227  and  _228
REMARK   87  A    between atoms: _237  and  _239
REMARK   88  A    between atoms: _239  and  _240
REMARK   89  A    between atoms: _239  and  _242
REMARK   90  A    between atoms: _242  and  _243
REMARK   91  A    between atoms: _246  and  _248
REMARK   92  A    between atoms: _248  and  _249
REMARK   93  A    between atoms: _248  and  _251
REMARK   94  A    between atoms: _251  and  _252
REMARK   95  A    between atoms: _257  and  _259
REMARK   96  A    between atoms: _259  and  _260
REMARK   97  A    between atoms: _263  and  _265
REMARK   98  A    between atoms: _265  and  _266
REMARK   99  A    between atoms: _265  and  _268
REMARK  100  A    between atoms: _268  and  _269
REMARK  101  A    between atoms: _271  and  _273
REMARK  102  A    between atoms: _273  and  _274
REMARK  103  A    between atoms: _276  and  _278
REMARK  104  A    between atoms: _278  and  _279
REMARK  105  A    between atoms: _278  and  _281
REMARK  106  A    between atoms: _281  and  _282
REMARK  107  A    between atoms: _287  and  _289
REMARK  108  A    between atoms: _289  and  _290
REMARK  109  A    between atoms: _289  and  _292
REMARK  110  A    between atoms: _292  and  _293
REMARK  111  A    between atoms: _298  and  _300
REMARK  112  A    between atoms: _300  and  _301
REMARK  113  A    between atoms: _300  and  _303
REMARK  114  A    between atoms: _303  and  _304
REMARK  115  A    between atoms: _310  and  _312
REMARK  116  A    between atoms: _312  and  _313
REMARK  117  A    between atoms: _312  and  _315
REMARK                            x       y       z     vdW  Elec       q    Type
REMARK                         _______ _______ _______ _____ _____    ______ ____
ROOT
ATOM      1  CA  TRP A   2      18.365  35.924  10.285  0.00  0.00    +0.153 C 
ENDROOT
BRANCH   1   2
ATOM      2  C   TRP A   2      18.282  37.453  10.506  0.00  0.00    +0.244 C 
ATOM      3  N   PRO A   3      19.399  38.085  10.772  0.00  0.00    -0.273 N 
ATOM      4  CA  PRO A   3      19.402  39.547  10.944  0.00  0.00    +0.140 C 
ATOM      5  CB  PRO A   3      20.885  39.897  11.224  0.00  0.00    +0.030 C 
ATOM      6  CG  PRO A   3      21.412  38.615  11.838  0.00  0.00    +0.024 C 
ATOM      7  CD  PRO A   3      20.758  37.543  10.911  0.00  0.00    +0.094 C 
ATOM      8  O   TRP A   2      17.185  38.043  10.409  0.00  0.00    -0.273 OA
BRANCH   4   9
ATOM      9  C   PRO A   3      19.054  40.259   9.611  0.00  0.00    +0.227 C 
ATOM     10  O   PRO A   3      19.401  39.757   8.549  0.00  0.00    -0.286 OA
ENDBRANCH   4   9
ENDBRANCH   1   2
BRANCH   1  13
ATOM     11  C   GLU A   1      17.319  34.198  11.745  0.00  0.00    +0.243 C 
ATOM     12  O   GLU A   1      18.313  33.454  11.828  0.00  0.00    -0.273 OA
ATOM     13  N   TRP A   2      17.268  35.342  11.060  0.00  0.00    -0.297 N 
ATOM     14  H   TRP A   2      16.370  35.866  11.078  0.00  0.00    +0.150 HD
BRANCH  11  15
ATOM     15  CA  GLU A   1      16.005  33.860  12.410  0.00  0.00    +0.167 C 
BRANCH  15  16
ATOM     16  N   GLU A   1      15.838  32.405  12.352  0.00  0.00    -0.234 NA
ATOM     17  H   GLU A   1      16.517  31.776  12.827  0.00  0.00    +0.142 HD
ENDBRANCH  15  16
BRANCH  15  18
ATOM     18  CB  GLU A   1      16.003  34.371  13.841  0.00  0.00    +0.006 C 
ATOM     19  CG  GLU A   1      17.173  33.959  14.706  0.00  0.00    +0.083 C 
BRANCH  19  20
ATOM     20  CD  GLU A   1      17.225  34.575  16.079  0.00  0.00    +0.388 C 
ATOM     21  OE2 GLU A   1      16.585  34.157  16.992  0.00  0.00    -0.241 OA
ATOM     22  OE1 GLU A   1      17.960  35.584  16.176  0.00  0.00    -0.241 OA
ENDBRANCH  19  20
ENDBRANCH  15  18
ENDBRANCH  11  15
ENDBRANCH   1  13
BRANCH   1  23
ATOM     23  CB  TRP A   2      18.166  35.519   8.805  0.00  0.00    +0.057 C 
BRANCH  23  24
ATOM     24  CG  TRP A   2      19.089  36.177   7.826  0.00  0.00    -0.002 A 
ATOM     25  CD2 TRP A   2      20.446  35.869   7.576  0.00  0.00    +0.013 A 
ATOM     26  CE3 TRP A   2      21.333  34.921   8.122  0.00  0.00    +0.001 A 
ATOM     27  CZ3 TRP A   2      22.641  34.889   7.659  0.00  0.00    +0.000 A 
ATOM     28  CH2 TRP A   2      23.034  35.782   6.640  0.00  0.00    +0.001 A 
ATOM     29  CZ2 TRP A   2      22.219  36.750   6.121  0.00  0.00    +0.017 A 
ATOM     30  CE2 TRP A   2      20.906  36.753   6.595  0.00  0.00    +0.056 A 
ATOM     31  NE1 TRP A   2      19.862  37.581   6.238  0.00  0.00    -0.352 N 
ATOM     32  HE1 TRP A   2      19.897  38.342   5.530  0.00  0.00    +0.166 HD
ATOM     33  CD1 TRP A   2      18.776  37.221   6.981  0.00  0.00    +0.068 A 
ENDBRANCH  23  24
ENDBRANCH   1  23
TORSDOF 9
REMARK  Name = ../refined-set-2016/1rnt/1rnt_pocket.pdb
REMARK  117 active torsions:
REMARK  status: ('A' for Active; 'I' for Inactive)
REMARK    1  A    between atoms: _1  and  _3
REMARK    2  A    between atoms: _3  and  _4
REMARK    3  A    between atoms: _3  and  _6
REMARK    4  A    between atoms: _6  and  _7
REMARK    5  A    between atoms: _9  and  _11
REMARK    6  A    between atoms: _11  and  _12
REMARK    7  A    between atoms: _11  and  _14
REMARK    8  A    between atoms: _14  and  _15
REMARK    9  A    between atoms: _20  and  _22
REMARK   10  A    between atoms: _22  and  _23
REMARK   11  A    between atoms: _22  and  _25
REMARK   12  A    between atoms: _25  and  _26
REMARK   13  A    between atoms: _28  and  _30
REMARK   14  A    between atoms: _30  and  _31
REMARK   15  A    between atoms: _30  and  _33
REMARK   16  A    between atoms: _33  and  _34
REMARK   17  A    between atoms: _39  and  _40
REMARK   18  A    between atoms: _42  and  _44
REMARK   19  A    between atoms: _44  and  _45
REMARK   20  A    between atoms: _44  and  _47
REMARK   21  A    between atoms: _47  and  _48
REMARK   22  A    between atoms: _53  and  _55
REMARK   23  A    between atoms: _55  and  _56
REMARK   24  A    between atoms: _55  and  _58
REMARK   25  A    between atoms: _58  and  _59
REMARK   26  A    between atoms: _59  and  _60
REMARK   27  A    between atoms: _60  and  _61
REMARK   28  A    between atoms: _61  and  _62
REMARK   29  A    between atoms: _66  and  _68
REMARK   30  A    between atoms: _68  and  _69
REMARK   31  A    between atoms: _68  and  _71
REMARK   32  A    between atoms: _71  and  _72
REMARK   33  A    between atoms: _77  and  _78
REMARK   34  A    between atoms: _80  and  _82
REMARK   35  A    between atoms: _82  and  _83
REMARK   36  A    between atoms: _82  and  _85
REMARK   37  A    between atoms: _85  and  _86
REMARK   38  A    between atoms: _91  and  _93
REMARK   39  A    between atoms: _93  and  _94
REMARK   40  A    between atoms: _93  and  _96
REMARK   41  A    between atoms: _96  and  _97
REMARK   42  A    between atoms: _102  and  _104
REMARK   43  A    between atoms: _104  and  _105
REMARK   44  A    between atoms: _104  and  _107
REMARK   45  A    between atoms: _107  and  _108
REMARK   46  A    between atoms: _113  and  _114
REMARK   47  A    between atoms: _116  and  _118
REMARK   48  A    between atoms: _118  and  _119
REMARK   49  A    between atoms: _118  and  _121
REMARK   50  A    between atoms: _121  and  _122
REMARK   51  A    between atoms: _122  and  _123
REMARK   52  A    between atoms: _126  and  _128
REMARK   53  A    between atoms: _128  and  _129
REMARK   54  A    between atoms: _131  and  _133
REMARK   55  A    between atoms: _133  and  _134
REMARK   56  A    between atoms: _133  and  _136
REMARK   57  A    between atoms: _136  and  _137
REMARK   58  A    between atoms: _143  and  _145
REMARK   59  A    between atoms: _145  and  _146
REMARK   60  A    between atoms: _145  and  _148
REMARK   61  A    between atoms: _148  and  _149
REMARK   62  A    between atoms: _155  and  _157
REMARK   63  A    between atoms: _157  and  _158
REMARK   64  A    between atoms: _157  and  _160
REMARK   65  A    between atoms: _160  and  _161
REMARK   66  A    between atoms: _166  and  _167
REMARK   67  A    between atoms: _169  and  _171
REMARK   68  A    between atoms: _171  and  _172
REMARK   69  A    between atoms: _171  and  _174
REMARK   70  A    between atoms: _175  and  _176
REMARK   71  A    between atoms: _179  and  _181
REMARK   72  A    between atoms: _181  and  _182
REMARK   73  A    between atoms: _181  and  _184
REMARK   74  A    between atoms: _184  and  _185
REMARK   75  A    between atoms: _196  and  _197
REMARK   76  A    between atoms: _203  and  _204
REMARK   77  A    between atoms: _209  and  _211
REMARK   78  A    between atoms: _211  and  _212
REMARK   79  A    between atoms: _214  and  _216
REMARK   80  A    between atoms: _216  and  _217
REMARK   81  A    between atoms: _220  and  _222
REMARK   82  A    between atoms: _222  and  _223
REMARK   83  A    between atoms: _222  and  _225
REMARK   84  A    between atoms: _225  and  _226
REMARK   85  A    between atoms: _226  and  _227
REMARK   86  A    between atoms: _227  and  _228
REMARK   87  A    between atoms: _237  and  _239
REMARK   88  A    between atoms: _239  and  _240
REMARK   89  A    between atoms: _239  and  _242
REMARK   90  A    between atoms: _242  and  _243
REMARK   91  A    between atoms: _246  and  _248
REMARK   92  A    between atoms: _248  and  _249
REMARK   93  A    between atoms: _248  and  _251
REMARK   94  A    between atoms: _251  and  _252
REMARK   95  A    between atoms: _257  and  _259
REMARK   96  A    between atoms: _259  and  _260
REMARK   97  A    between atoms: _263  and  _265
REMARK   98  A    between atoms: _265  and  _266
REMARK   99  A    between atoms: _265  and  _268
REMARK  100  A    between atoms: _268  and  _269
REMARK  101  A    between atoms: _271  and  _273
REMARK  102  A    between atoms: _273  and  _274
REMARK  103  A    between atoms: _276  and  _278
REMARK  104  A    between atoms: _278  and  _279
REMARK  105  A    between atoms: _278  and  _281
REMARK  106  A    between atoms: _281  and  _282
REMARK  107  A    between atoms: _287  and  _289
REMARK  108  A    between atoms: _289  and  _290
REMARK  109  A    between atoms: _289  and  _292
REMARK  110  A    between atoms: _292  and  _293
REMARK  111  A    between atoms: _298  and  _300
REMARK  112  A    between atoms: _300  and  _301
REMARK  113  A    between atoms: _300  and  _303
REMARK  114  A    between atoms: _303  and  _304
REMARK  115  A    between atoms: _310  and  _312
REMARK  116  A    between atoms: _312  and  _313
REMARK  117  A    between atoms: _312  and  _315
REMARK                            x       y       z     vdW  Elec       q    Type
REMARK                         _______ _______ _______ _____ _____    ______ ____
ROOT
ATOM      1  C   PRO A   1      22.822  42.659  14.052  0.00  0.00    +0.239 C 
ATOM      2  N   GLY A   2      23.124  43.550  15.014  0.00  0.00    -0.296 N 
ATOM      3  H   GLY A   2      24.001  43.512  15.572  0.00  0.00    +0.150 HD
ATOM      4  O   PRO A   1      21.726  42.740  13.435  0.00  0.00    -0.274 OA
ENDROOT
BRANCH   1   9
ATOM      5  N   PRO A   1      25.149  41.826  14.315  0.00  0.00    -0.210 NA
ATOM      6  CD  PRO A   1      25.430  40.940  15.471  0.00  0.00    +0.089 C 
ATOM      7  CG  PRO A   1      24.070  40.301  15.789  0.00  0.00    +0.021 C 
ATOM      8  CB  PRO A   1      23.375  40.247  14.445  0.00  0.00    +0.028 C 
ATOM      9  CA  PRO A   1      23.808  41.571  13.762  0.00  0.00    +0.149 C 
ENDBRANCH   1   9
BRANCH   2  10
ATOM     10  CA  GLY A   2      22.068  44.608  15.203  0.00  0.00    +0.176 C 
BRANCH  10  11
ATOM     11  C   GLY A   2      20.988  43.962  16.066  0.00  0.00    +0.243 C 
ATOM     12  O   GLY A   2      21.189  42.883  16.667  0.00  0.00    -0.273 OA
ATOM     13  N   ALA A   3      19.846  44.559  16.200  0.00  0.00    -0.298 N 
ATOM     14  H   ALA A   3      19.690  45.463  15.709  0.00  0.00    +0.150 HD
BRANCH  13  15
ATOM     15  CA  ALA A   3      18.749  43.994  17.033  0.00  0.00    +0.137 C 
ATOM     16  CB  ALA A   3      18.309  45.188  17.946  0.00  0.00    +0.030 C 
BRANCH  15  17
ATOM     17  C   ALA A   3      17.597  43.463  16.228  0.00  0.00    +0.227 C 
ATOM     18  O   ALA A   3      16.687  42.849  16.823  0.00  0.00    -0.286 OA
ENDBRANCH  15  17
ENDBRANCH  13  15
ENDBRANCH  10  11
ENDBRANCH   2  10
TORSDOF 5
REMARK  Name = ../refined-set-2016/1rnt/1rnt_pocket.pdb
REMARK  117 active torsions:
REMARK  status: ('A' for Active; 'I' for Inactive)
REMARK    1  A    between atoms: _1  and  _3
REMARK    2  A    between atoms: _3  and  _4
REMARK    3  A    between atoms: _3  and  _6
REMARK    4  A    between atoms: _6  and  _7
REMARK    5  A    between atoms: _9  and  _11
REMARK    6  A    between atoms: _11  and  _12
REMARK    7  A    between atoms: _11  and  _14
REMARK    8  A    between atoms: _14  and  _15
REMARK    9  A    between atoms: _20  and  _22
REMARK   10  A    between atoms: _22  and  _23
REMARK   11  A    between atoms: _22  and  _25
REMARK   12  A    between atoms: _25  and  _26
REMARK   13  A    between atoms: _28  and  _30
REMARK   14  A    between atoms: _30  and  _31
REMARK   15  A    between atoms: _30  and  _33
REMARK   16  A    between atoms: _33  and  _34
REMARK   17  A    between atoms: _39  and  _40
REMARK   18  A    between atoms: _42  and  _44
REMARK   19  A    between atoms: _44  and  _45
REMARK   20  A    between atoms: _44  and  _47
REMARK   21  A    between atoms: _47  and  _48
REMARK   22  A    between atoms: _53  and  _55
REMARK   23  A    between atoms: _55  and  _56
REMARK   24  A    between atoms: _55  and  _58
REMARK   25  A    between atoms: _58  and  _59
REMARK   26  A    between atoms: _59  and  _60
REMARK   27  A    between atoms: _60  and  _61
REMARK   28  A    between atoms: _61  and  _62
REMARK   29  A    between atoms: _66  and  _68
REMARK   30  A    between atoms: _68  and  _69
REMARK   31  A    between atoms: _68  and  _71
REMARK   32  A    between atoms: _71  and  _72
REMARK   33  A    between atoms: _77  and  _78
REMARK   34  A    between atoms: _80  and  _82
REMARK   35  A    between atoms: _82  and  _83
REMARK   36  A    between atoms: _82  and  _85
REMARK   37  A    between atoms: _85  and  _86
REMARK   38  A    between atoms: _91  and  _93
REMARK   39  A    between atoms: _93  and  _94
REMARK   40  A    between atoms: _93  and  _96
REMARK   41  A    between atoms: _96  and  _97
REMARK   42  A    between atoms: _102  and  _104
REMARK   43  A    between atoms: _104  and  _105
REMARK   44  A    between atoms: _104  and  _107
REMARK   45  A    between atoms: _107  and  _108
REMARK   46  A    between atoms: _113  and  _114
REMARK   47  A    between atoms: _116  and  _118
REMARK   48  A    between atoms: _118  and  _119
REMARK   49  A    between atoms: _118  and  _121
REMARK   50  A    between atoms: _121  and  _122
REMARK   51  A    between atoms: _122  and  _123
REMARK   52  A    between atoms: _126  and  _128
REMARK   53  A    between atoms: _128  and  _129
REMARK   54  A    between atoms: _131  and  _133
REMARK   55  A    between atoms: _133  and  _134
REMARK   56  A    between atoms: _133  and  _136
REMARK   57  A    between atoms: _136  and  _137
REMARK   58  A    between atoms: _143  and  _145
REMARK   59  A    between atoms: _145  and  _146
REMARK   60  A    between atoms: _145  and  _148
REMARK   61  A    between atoms: _148  and  _149
REMARK   62  A    between atoms: _155  and  _157
REMARK   63  A    between atoms: _157  and  _158
REMARK   64  A    between atoms: _157  and  _160
REMARK   65  A    between atoms: _160  and  _161
REMARK   66  A    between atoms: _166  and  _167
REMARK   67  A    between atoms: _169  and  _171
REMARK   68  A    between atoms: _171  and  _172
REMARK   69  A    between atoms: _171  and  _174
REMARK   70  A    between atoms: _175  and  _176
REMARK   71  A    between atoms: _179  and  _181
REMARK   72  A    between atoms: _181  and  _182
REMARK   73  A    between atoms: _181  and  _184
REMARK   74  A    between atoms: _184  and  _185
REMARK   75  A    between atoms: _196  and  _197
REMARK   76  A    between atoms: _203  and  _204
REMARK   77  A    between atoms: _209  and  _211
REMARK   78  A    between atoms: _211  and  _212
REMARK   79  A    between atoms: _214  and  _216
REMARK   80  A    between atoms: _216  and  _217
REMARK   81  A    between atoms: _220  and  _222
REMARK   82  A    between atoms: _222  and  _223
REMARK   83  A    between atoms: _222  and  _225
REMARK   84  A    between atoms: _225  and  _226
REMARK   85  A    between atoms: _226  and  _227
REMARK   86  A    between atoms: _227  and  _228
REMARK   87  A    between atoms: _237  and  _239
REMARK   88  A    between atoms: _239  and  _240
REMARK   89  A    between atoms: _239  and  _242
REMARK   90  A    between atoms: _242  and  _243
REMARK   91  A    between atoms: _246  and  _248
REMARK   92  A    between atoms: _248  and  _249
REMARK   93  A    between atoms: _248  and  _251
REMARK   94  A    between atoms: _251  and  _252
REMARK   95  A    between atoms: _257  and  _259
REMARK   96  A    between atoms: _259  and  _260
REMARK   97  A    between atoms: _263  and  _265
REMARK   98  A    between atoms: _265  and  _266
REMARK   99  A    between atoms: _265  and  _268
REMARK  100  A    between atoms: _268  and  _269
REMARK  101  A    between atoms: _271  and  _273
REMARK  102  A    between atoms: _273  and  _274
REMARK  103  A    between atoms: _276  and  _278
REMARK  104  A    between atoms: _278  and  _279
REMARK  105  A    between atoms: _278  and  _281
REMARK  106  A    between atoms: _281  and  _282
REMARK  107  A    between atoms: _287  and  _289
REMARK  108  A    between atoms: _289  and  _290
REMARK  109  A    between atoms: _289  and  _292
REMARK  110  A    between atoms: _292  and  _293
REMARK  111  A    between atoms: _298  and  _300
REMARK  112  A    between atoms: _300  and  _301
REMARK  113  A    between atoms: _300  and  _303
REMARK  114  A    between atoms: _303  and  _304
REMARK  115  A    between atoms: _310  and  _312
REMARK  116  A    between atoms: _312  and  _313
REMARK  117  A    between atoms: _312  and  _315
REMARK                            x       y       z     vdW  Elec       q    Type
REMARK                         _______ _______ _______ _____ _____    ______ ____
ROOT
ATOM      1  NE  ARG A   1      18.965  38.510  15.469  0.00  0.00    -0.265 N 
ATOM      2  HE  ARG A   1      19.043  37.646  16.043  0.00  0.00    +0.259 HD
ATOM      3  CZ  ARG A   1      19.692  39.581  15.850  0.00  0.00    +0.342 C 
ATOM      4  NH2 ARG A   1      20.261  39.566  17.064  0.00  0.00    -0.292 N 
ATOM      5 HH21 ARG A   1      20.137  38.742  17.686  0.00  0.00    +0.255 HD
ATOM      6 HH22 ARG A   1      20.827  40.378  17.383  0.00  0.00    +0.255 HD
ATOM      7  NH1 ARG A   1      19.764  40.696  15.150  0.00  0.00    -0.292 N 
ATOM      8 HH11 ARG A   1      20.341  41.490  15.494  0.00  0.00    +0.255 HD
ATOM      9 HH12 ARG A   1      19.243  40.782  14.254  0.00  0.00    +0.255 HD
ENDROOT
BRANCH   1  10
ATOM     10  CD  ARG A   1      18.069  38.473  14.301  0.00  0.00    +0.174 C 
BRANCH  10  11
ATOM     11  CG  ARG A   1      16.662  38.746  14.792  0.00  0.00    +0.045 C 
BRANCH  11  12
ATOM     12  CB  ARG A   1      15.617  38.665  13.731  0.00  0.00    +0.029 C 
BRANCH  12  13
ATOM     13  CA  ARG A   1      15.540  39.785  12.696  0.00  0.00    +0.133 C 
BRANCH  13  14
ATOM     14  N   ARG A   1      15.540  41.095  13.328  0.00  0.00    -0.239 NA
ATOM     15  H   ARG A   1      14.644  41.464  13.706  0.00  0.00    +0.142 HD
ENDBRANCH  13  14
BRANCH  13  16
ATOM     16  C   ARG A   1      14.286  39.526  11.891  0.00  0.00    +0.224 C 
ATOM     17  O   ARG A   1      13.143  39.871  12.214  0.00  0.00    -0.287 OA
ENDBRANCH  13  16
ENDBRANCH  12  13
ENDBRANCH  11  12
ENDBRANCH  10  11
ENDBRANCH   1  10
TORSDOF 6
REMARK  Name = ../refined-set-2016/1rnt/1rnt_pocket.pdb
REMARK  117 active torsions:
REMARK  status: ('A' for Active; 'I' for Inactive)
REMARK    1  A    between atoms: _1  and  _3
REMARK    2  A    between atoms: _3  and  _4
REMARK    3  A    between atoms: _3  and  _6
REMARK    4  A    between atoms: _6  and  _7
REMARK    5  A    between atoms: _9  and  _11
REMARK    6  A    between atoms: _11  and  _12
REMARK    7  A    between atoms: _11  and  _14
REMARK    8  A    between atoms: _14  and  _15
REMARK    9  A    between atoms: _20  and  _22
REMARK   10  A    between atoms: _22  and  _23
REMARK   11  A    between atoms: _22  and  _25
REMARK   12  A    between atoms: _25  and  _26
REMARK   13  A    between atoms: _28  and  _30
REMARK   14  A    between atoms: _30  and  _31
REMARK   15  A    between atoms: _30  and  _33
REMARK   16  A    between atoms: _33  and  _34
REMARK   17  A    between atoms: _39  and  _40
REMARK   18  A    between atoms: _42  and  _44
REMARK   19  A    between atoms: _44  and  _45
REMARK   20  A    between atoms: _44  and  _47
REMARK   21  A    between atoms: _47  and  _48
REMARK   22  A    between atoms: _53  and  _55
REMARK   23  A    between atoms: _55  and  _56
REMARK   24  A    between atoms: _55  and  _58
REMARK   25  A    between atoms: _58  and  _59
REMARK   26  A    between atoms: _59  and  _60
REMARK   27  A    between atoms: _60  and  _61
REMARK   28  A    between atoms: _61  and  _62
REMARK   29  A    between atoms: _66  and  _68
REMARK   30  A    between atoms: _68  and  _69
REMARK   31  A    between atoms: _68  and  _71
REMARK   32  A    between atoms: _71  and  _72
REMARK   33  A    between atoms: _77  and  _78
REMARK   34  A    between atoms: _80  and  _82
REMARK   35  A    between atoms: _82  and  _83
REMARK   36  A    between atoms: _82  and  _85
REMARK   37  A    between atoms: _85  and  _86
REMARK   38  A    between atoms: _91  and  _93
REMARK   39  A    between atoms: _93  and  _94
REMARK   40  A    between atoms: _93  and  _96
REMARK   41  A    between atoms: _96  and  _97
REMARK   42  A    between atoms: _102  and  _104
REMARK   43  A    between atoms: _104  and  _105
REMARK   44  A    between atoms: _104  and  _107
REMARK   45  A    between atoms: _107  and  _108
REMARK   46  A    between atoms: _113  and  _114
REMARK   47  A    between atoms: _116  and  _118
REMARK   48  A    between atoms: _118  and  _119
REMARK   49  A    between atoms: _118  and  _121
REMARK   50  A    between atoms: _121  and  _122
REMARK   51  A    between atoms: _122  and  _123
REMARK   52  A    between atoms: _126  and  _128
REMARK   53  A    between atoms: _128  and  _129
REMARK   54  A    between atoms: _131  and  _133
REMARK   55  A    between atoms: _133  and  _134
REMARK   56  A    between atoms: _133  and  _136
REMARK   57  A    between atoms: _136  and  _137
REMARK   58  A    between atoms: _143  and  _145
REMARK   59  A    between atoms: _145  and  _146
REMARK   60  A    between atoms: _145  and  _148
REMARK   61  A    between atoms: _148  and  _149
REMARK   62  A    between atoms: _155  and  _157
REMARK   63  A    between atoms: _157  and  _158
REMARK   64  A    between atoms: _157  and  _160
REMARK   65  A    between atoms: _160  and  _161
REMARK   66  A    between atoms: _166  and  _167
REMARK   67  A    between atoms: _169  and  _171
REMARK   68  A    between atoms: _171  and  _172
REMARK   69  A    between atoms: _171  and  _174
REMARK   70  A    between atoms: _175  and  _176
REMARK   71  A    between atoms: _179  and  _181
REMARK   72  A    between atoms: _181  and  _182
REMARK   73  A    between atoms: _181  and  _184
REMARK   74  A    between atoms: _184  and  _185
REMARK   75  A    between atoms: _196  and  _197
REMARK   76  A    between atoms: _203  and  _204
REMARK   77  A    between atoms: _209  and  _211
REMARK   78  A    between atoms: _211  and  _212
REMARK   79  A    between atoms: _214  and  _216
REMARK   80  A    between atoms: _216  and  _217
REMARK   81  A    between atoms: _220  and  _222
REMARK   82  A    between atoms: _222  and  _223
REMARK   83  A    between atoms: _222  and  _225
REMARK   84  A    between atoms: _225  and  _226
REMARK   85  A    between atoms: _226  and  _227
REMARK   86  A    between atoms: _227  and  _228
REMARK   87  A    between atoms: _237  and  _239
REMARK   88  A    between atoms: _239  and  _240
REMARK   89  A    between atoms: _239  and  _242
REMARK   90  A    between atoms: _242  and  _243
REMARK   91  A    between atoms: _246  and  _248
REMARK   92  A    between atoms: _248  and  _249
REMARK   93  A    between atoms: _248  and  _251
REMARK   94  A    between atoms: _251  and  _252
REMARK   95  A    between atoms: _257  and  _259
REMARK   96  A    between atoms: _259  and  _260
REMARK   97  A    between atoms: _263  and  _265
REMARK   98  A    between atoms: _265  and  _266
REMARK   99  A    between atoms: _265  and  _268
REMARK  100  A    between atoms: _268  and  _269
REMARK  101  A    between atoms: _271  and  _273
REMARK  102  A    between atoms: _273  and  _274
REMARK  103  A    between atoms: _276  and  _278
REMARK  104  A    between atoms: _278  and  _279
REMARK  105  A    between atoms: _278  and  _281
REMARK  106  A    between atoms: _281  and  _282
REMARK  107  A    between atoms: _287  and  _289
REMARK  108  A    between atoms: _289  and  _290
REMARK  109  A    between atoms: _289  and  _292
REMARK  110  A    between atoms: _292  and  _293
REMARK  111  A    between atoms: _298  and  _300
REMARK  112  A    between atoms: _300  and  _301
REMARK  113  A    between atoms: _300  and  _303
REMARK  114  A    between atoms: _303  and  _304
REMARK  115  A    between atoms: _310  and  _312
REMARK  116  A    between atoms: _312  and  _313
REMARK  117  A    between atoms: _312  and  _315
REMARK                            x       y       z     vdW  Elec       q    Type
REMARK                         _______ _______ _______ _____ _____    ______ ____
ROOT
ATOM      1  CA  ILE A   1      11.089  40.988  15.304  0.00  0.00    +0.133 C 
ENDROOT
BRANCH   1   2
ATOM      2  N   ILE A   1      11.087  40.737  13.827  0.00  0.00    -0.239 NA
ATOM      3  H   ILE A   1      11.918  40.357  13.331  0.00  0.00    +0.142 HD
ENDBRANCH   1   2
BRANCH   1   4
ATOM      4  CB  ILE A   1      10.981  39.591  16.020  0.00  0.00    +0.023 C 
ATOM      5  CG2 ILE A   1       9.619  38.904  15.755  0.00  0.00    +0.002 C 
BRANCH   4   6
ATOM      6  CG1 ILE A   1      12.233  38.760  15.612  0.00  0.00    +0.002 C 
ATOM      7  CD1 ILE A   1      12.358  37.363  16.349  0.00  0.00    +0.000 C 
ENDBRANCH   4   6
ENDBRANCH   1   4
BRANCH   1   8
ATOM      8  C   ILE A   1      12.335  41.732  15.719  0.00  0.00    +0.224 C 
ATOM      9  O   ILE A   1      13.171  41.877  14.840  0.00  0.00    -0.287 OA
ENDBRANCH   1   8
TORSDOF 4
REMARK  Name = ../refined-set-2016/1rnt/1rnt_pocket.pdb
REMARK  117 active torsions:
REMARK  status: ('A' for Active; 'I' for Inactive)
REMARK    1  A    between atoms: _1  and  _3
REMARK    2  A    between atoms: _3  and  _4
REMARK    3  A    between atoms: _3  and  _6
REMARK    4  A    between atoms: _6  and  _7
REMARK    5  A    between atoms: _9  and  _11
REMARK    6  A    between atoms: _11  and  _12
REMARK    7  A    between atoms: _11  and  _14
REMARK    8  A    between atoms: _14  and  _15
REMARK    9  A    between atoms: _20  and  _22
REMARK   10  A    between atoms: _22  and  _23
REMARK   11  A    between atoms: _22  and  _25
REMARK   12  A    between atoms: _25  and  _26
REMARK   13  A    between atoms: _28  and  _30
REMARK   14  A    between atoms: _30  and  _31
REMARK   15  A    between atoms: _30  and  _33
REMARK   16  A    between atoms: _33  and  _34
REMARK   17  A    between atoms: _39  and  _40
REMARK   18  A    between atoms: _42  and  _44
REMARK   19  A    between atoms: _44  and  _45
REMARK   20  A    between atoms: _44  and  _47
REMARK   21  A    between atoms: _47  and  _48
REMARK   22  A    between atoms: _53  and  _55
REMARK   23  A    between atoms: _55  and  _56
REMARK   24  A    between atoms: _55  and  _58
REMARK   25  A    between atoms: _58  and  _59
REMARK   26  A    between atoms: _59  and  _60
REMARK   27  A    between atoms: _60  and  _61
REMARK   28  A    between atoms: _61  and  _62
REMARK   29  A    between atoms: _66  and  _68
REMARK   30  A    between atoms: _68  and  _69
REMARK   31  A    between atoms: _68  and  _71
REMARK   32  A    between atoms: _71  and  _72
REMARK   33  A    between atoms: _77  and  _78
REMARK   34  A    between atoms: _80  and  _82
REMARK   35  A    between atoms: _82  and  _83
REMARK   36  A    between atoms: _82  and  _85
REMARK   37  A    between atoms: _85  and  _86
REMARK   38  A    between atoms: _91  and  _93
REMARK   39  A    between atoms: _93  and  _94
REMARK   40  A    between atoms: _93  and  _96
REMARK   41  A    between atoms: _96  and  _97
REMARK   42  A    between atoms: _102  and  _104
REMARK   43  A    between atoms: _104  and  _105
REMARK   44  A    between atoms: _104  and  _107
REMARK   45  A    between atoms: _107  and  _108
REMARK   46  A    between atoms: _113  and  _114
REMARK   47  A    between atoms: _116  and  _118
REMARK   48  A    between atoms: _118  and  _119
REMARK   49  A    between atoms: _118  and  _121
REMARK   50  A    between atoms: _121  and  _122
REMARK   51  A    between atoms: _122  and  _123
REMARK   52  A    between atoms: _126  and  _128
REMARK   53  A    between atoms: _128  and  _129
REMARK   54  A    between atoms: _131  and  _133
REMARK   55  A    between atoms: _133  and  _134
REMARK   56  A    between atoms: _133  and  _136
REMARK   57  A    between atoms: _136  and  _137
REMARK   58  A    between atoms: _143  and  _145
REMARK   59  A    between atoms: _145  and  _146
REMARK   60  A    between atoms: _145  and  _148
REMARK   61  A    between atoms: _148  and  _149
REMARK   62  A    between atoms: _155  and  _157
REMARK   63  A    between atoms: _157  and  _158
REMARK   64  A    between atoms: _157  and  _160
REMARK   65  A    between atoms: _160  and  _161
REMARK   66  A    between atoms: _166  and  _167
REMARK   67  A    between atoms: _169  and  _171
REMARK   68  A    between atoms: _171  and  _172
REMARK   69  A    between atoms: _171  and  _174
REMARK   70  A    between atoms: _175  and  _176
REMARK   71  A    between atoms: _179  and  _181
REMARK   72  A    between atoms: _181  and  _182
REMARK   73  A    between atoms: _181  and  _184
REMARK   74  A    between atoms: _184  and  _185
REMARK   75  A    between atoms: _196  and  _197
REMARK   76  A    between atoms: _203  and  _204
REMARK   77  A    between atoms: _209  and  _211
REMARK   78  A    between atoms: _211  and  _212
REMARK   79  A    between atoms: _214  and  _216
REMARK   80  A    between atoms: _216  and  _217
REMARK   81  A    between atoms: _220  and  _222
REMARK   82  A    between atoms: _222  and  _223
REMARK   83  A    between atoms: _222  and  _225
REMARK   84  A    between atoms: _225  and  _226
REMARK   85  A    between atoms: _226  and  _227
REMARK   86  A    between atoms: _227  and  _228
REMARK   87  A    between atoms: _237  and  _239
REMARK   88  A    between atoms: _239  and  _240
REMARK   89  A    between atoms: _239  and  _242
REMARK   90  A    between atoms: _242  and  _243
REMARK   91  A    between atoms: _246  and  _248
REMARK   92  A    between atoms: _248  and  _249
REMARK   93  A    between atoms: _248  and  _251
REMARK   94  A    between atoms: _251  and  _252
REMARK   95  A    between atoms: _257  and  _259
REMARK   96  A    between atoms: _259  and  _260
REMARK   97  A    between atoms: _263  and  _265
REMARK   98  A    between atoms: _265  and  _266
REMARK   99  A    between atoms: _265  and  _268
REMARK  100  A    between atoms: _268  and  _269
REMARK  101  A    between atoms: _271  and  _273
REMARK  102  A    between atoms: _273  and  _274
REMARK  103  A    between atoms: _276  and  _278
REMARK  104  A    between atoms: _278  and  _279
REMARK  105  A    between atoms: _278  and  _281
REMARK  106  A    between atoms: _281  and  _282
REMARK  107  A    between atoms: _287  and  _289
REMARK  108  A    between atoms: _289  and  _290
REMARK  109  A    between atoms: _289  and  _292
REMARK  110  A    between atoms: _292  and  _293
REMARK  111  A    between atoms: _298  and  _300
REMARK  112  A    between atoms: _300  and  _301
REMARK  113  A    between atoms: _300  and  _303
REMARK  114  A    between atoms: _303  and  _304
REMARK  115  A    between atoms: _310  and  _312
REMARK  116  A    between atoms: _312  and  _313
REMARK  117  A    between atoms: _312  and  _315
REMARK                            x       y       z     vdW  Elec       q    Type
REMARK                         _______ _______ _______ _____ _____    ______ ____
ROOT
ATOM      1  CB  HIS A   1      16.885  42.963  21.016  0.00  0.00    +0.072 C 
ENDROOT
BRANCH   1   2
ATOM      2  CG  HIS A   1      17.174  41.490  20.856  0.00  0.00    +0.082 A 
ATOM      3  CD2 HIS A   1      16.566  40.487  21.470  0.00  0.00    +0.115 A 
ATOM      4  NE2 HIS A   1      17.195  39.306  21.104  0.00  0.00    -0.221 NA
ATOM      5  CE1 HIS A   1      18.136  39.649  20.235  0.00  0.00    +0.199 A 
ATOM      6  ND1 HIS A   1      18.232  41.023  20.084  0.00  0.00    -0.227 NA
ENDBRANCH   1   2
BRANCH   1   7
ATOM      7  CA  HIS A   1      15.372  43.218  20.842  0.00  0.00    +0.139 C 
BRANCH   7   8
ATOM      8  N   HIS A   1      15.043  43.073  19.422  0.00  0.00    -0.239 NA
ATOM      9  H   HIS A   1      15.841  43.101  18.755  0.00  0.00    +0.142 HD
ENDBRANCH   7   8
BRANCH   7  10
ATOM     10  C   HIS A   1      15.104  44.677  21.267  0.00  0.00    +0.224 C 
ATOM     11  O   HIS A   1      15.046  45.012  22.463  0.00  0.00    -0.287 OA
ENDBRANCH   7  10
ENDBRANCH   1   7
TORSDOF 4
REMARK  Name = ../refined-set-2016/1rnt/1rnt_pocket.pdb
REMARK  117 active torsions:
REMARK  status: ('A' for Active; 'I' for Inactive)
REMARK    1  A    between atoms: _1  and  _3
REMARK    2  A    between atoms: _3  and  _4
REMARK    3  A    between atoms: _3  and  _6
REMARK    4  A    between atoms: _6  and  _7
REMARK    5  A    between atoms: _9  and  _11
REMARK    6  A    between atoms: _11  and  _12
REMARK    7  A    between atoms: _11  and  _14
REMARK    8  A    between atoms: _14  and  _15
REMARK    9  A    between atoms: _20  and  _22
REMARK   10  A    between atoms: _22  and  _23
REMARK   11  A    between atoms: _22  and  _25
REMARK   12  A    between atoms: _25  and  _26
REMARK   13  A    between atoms: _28  and  _30
REMARK   14  A    between atoms: _30  and  _31
REMARK   15  A    between atoms: _30  and  _33
REMARK   16  A    between atoms: _33  and  _34
REMARK   17  A    between atoms: _39  and  _40
REMARK   18  A    between atoms: _42  and  _44
REMARK   19  A    between atoms: _44  and  _45
REMARK   20  A    between atoms: _44  and  _47
REMARK   21  A    between atoms: _47  and  _48
REMARK   22  A    between atoms: _53  and  _55
REMARK   23  A    between atoms: _55  and  _56
REMARK   24  A    between atoms: _55  and  _58
REMARK   25  A    between atoms: _58  and  _59
REMARK   26  A    between atoms: _59  and  _60
REMARK   27  A    between atoms: _60  and  _61
REMARK   28  A    between atoms: _61  and  _62
REMARK   29  A    between atoms: _66  and  _68
REMARK   30  A    between atoms: _68  and  _69
REMARK   31  A    between atoms: _68  and  _71
REMARK   32  A    between atoms: _71  and  _72
REMARK   33  A    between atoms: _77  and  _78
REMARK   34  A    between atoms: _80  and  _82
REMARK   35  A    between atoms: _82  and  _83
REMARK   36  A    between atoms: _82  and  _85
REMARK   37  A    between atoms: _85  and  _86
REMARK   38  A    between atoms: _91  and  _93
REMARK   39  A    between atoms: _93  and  _94
REMARK   40  A    between atoms: _93  and  _96
REMARK   41  A    between atoms: _96  and  _97
REMARK   42  A    between atoms: _102  and  _104
REMARK   43  A    between atoms: _104  and  _105
REMARK   44  A    between atoms: _104  and  _107
REMARK   45  A    between atoms: _107  and  _108
REMARK   46  A    between atoms: _113  and  _114
REMARK   47  A    between atoms: _116  and  _118
REMARK   48  A    between atoms: _118  and  _119
REMARK   49  A    between atoms: _118  and  _121
REMARK   50  A    between atoms: _121  and  _122
REMARK   51  A    between atoms: _122  and  _123
REMARK   52  A    between atoms: _126  and  _128
REMARK   53  A    between atoms: _128  and  _129
REMARK   54  A    between atoms: _131  and  _133
REMARK   55  A    between atoms: _133  and  _134
REMARK   56  A    between atoms: _133  and  _136
REMARK   57  A    between atoms: _136  and  _137
REMARK   58  A    between atoms: _143  and  _145
REMARK   59  A    between atoms: _145  and  _146
REMARK   60  A    between atoms: _145  and  _148
REMARK   61  A    between atoms: _148  and  _149
REMARK   62  A    between atoms: _155  and  _157
REMARK   63  A    between atoms: _157  and  _158
REMARK   64  A    between atoms: _157  and  _160
REMARK   65  A    between atoms: _160  and  _161
REMARK   66  A    between atoms: _166  and  _167
REMARK   67  A    between atoms: _169  and  _171
REMARK   68  A    between atoms: _171  and  _172
REMARK   69  A    between atoms: _171  and  _174
REMARK   70  A    between atoms: _175  and  _176
REMARK   71  A    between atoms: _179  and  _181
REMARK   72  A    between atoms: _181  and  _182
REMARK   73  A    between atoms: _181  and  _184
REMARK   74  A    between atoms: _184  and  _185
REMARK   75  A    between atoms: _196  and  _197
REMARK   76  A    between atoms: _203  and  _204
REMARK   77  A    between atoms: _209  and  _211
REMARK   78  A    between atoms: _211  and  _212
REMARK   79  A    between atoms: _214  and  _216
REMARK   80  A    between atoms: _216  and  _217
REMARK   81  A    between atoms: _220  and  _222
REMARK   82  A    between atoms: _222  and  _223
REMARK   83  A    between atoms: _222  and  _225
REMARK   84  A    between atoms: _225  and  _226
REMARK   85  A    between atoms: _226  and  _227
REMARK   86  A    between atoms: _227  and  _228
REMARK   87  A    between atoms: _237  and  _239
REMARK   88  A    between atoms: _239  and  _240
REMARK   89  A    between atoms: _239  and  _242
REMARK   90  A    between atoms: _242  and  _243
REMARK   91  A    between atoms: _246  and  _248
REMARK   92  A    between atoms: _248  and  _249
REMARK   93  A    between atoms: _248  and  _251
REMARK   94  A    between atoms: _251  and  _252
REMARK   95  A    between atoms: _257  and  _259
REMARK   96  A    between atoms: _259  and  _260
REMARK   97  A    between atoms: _263  and  _265
REMARK   98  A    between atoms: _265  and  _266
REMARK   99  A    between atoms: _265  and  _268
REMARK  100  A    between atoms: _268  and  _269
REMARK  101  A    between atoms: _271  and  _273
REMARK  102  A    between atoms: _273  and  _274
REMARK  103  A    between atoms: _276  and  _278
REMARK  104  A    between atoms: _278  and  _279
REMARK  105  A    between atoms: _278  and  _281
REMARK  106  A    between atoms: _281  and  _282
REMARK  107  A    between atoms: _287  and  _289
REMARK  108  A    between atoms: _289  and  _290
REMARK  109  A    between atoms: _289  and  _292
REMARK  110  A    between atoms: _292  and  _293
REMARK  111  A    between atoms: _298  and  _300
REMARK  112  A    between atoms: _300  and  _301
REMARK  113  A    between atoms: _300  and  _303
REMARK  114  A    between atoms: _303  and  _304
REMARK  115  A    between atoms: _310  and  _312
REMARK  116  A    between atoms: _312  and  _313
REMARK  117  A    between atoms: _312  and  _315
REMARK                            x       y       z     vdW  Elec       q    Type
REMARK                         _______ _______ _______ _____ _____    ______ ____
ROOT
ATOM      1  C   ASN A   4      16.138  38.792  24.435  0.00  0.00    +0.241 C 
ATOM      2  N   ASN A   5      15.114  39.366  25.024  0.00  0.00    -0.297 N 
ATOM      3  H   ASN A   5      15.287  40.043  25.795  0.00  0.00    +0.150 HD
ATOM      4  O   ASN A   4      16.080  37.919  23.544  0.00  0.00    -0.273 OA
ENDROOT
BRANCH   2   5
ATOM      5  CA  ASN A   5      13.735  39.079  24.625  0.00  0.00    +0.158 C 
BRANCH   5   6
ATOM      6  C   ASN A   5      13.545  39.833  23.283  0.00  0.00    +0.241 C 
ATOM      7  O   ASN A   5      14.376  40.646  22.942  0.00  0.00    -0.273 OA
ATOM      8  N   PHE A   6      12.473  39.514  22.593  0.00  0.00    -0.297 N 
ATOM      9  H   PHE A   6      11.860  38.782  23.006  0.00  0.00    +0.150 HD
BRANCH   8  10
ATOM     10  CA  PHE A   6      12.054  40.055  21.345  0.00  0.00    +0.153 C 
BRANCH  10  11
ATOM     11  C   PHE A   6      10.617  40.610  21.456  0.00  0.00    +0.241 C 
ATOM     12  O   PHE A   6       9.812  40.086  22.230  0.00  0.00    -0.273 OA
ATOM     13  N   VAL A   7      10.356  41.568  20.584  0.00  0.00    -0.298 N 
ATOM     14  H   VAL A   7      11.129  41.931  19.990  0.00  0.00    +0.150 HD
BRANCH  13  15
ATOM     15  CA  VAL A   7       9.002  42.142  20.423  0.00  0.00    +0.137 C 
BRANCH  15  16
ATOM     16  CB  VAL A   7       8.778  43.498  21.128  0.00  0.00    +0.026 C 
ATOM     17  CG2 VAL A   7       8.613  43.367  22.642  0.00  0.00    +0.002 C 
ATOM     18  CG1 VAL A   7       9.865  44.490  20.781  0.00  0.00    +0.002 C 
ENDBRANCH  15  16
BRANCH  15  19
ATOM     19  C   VAL A   7       8.780  42.190  18.911  0.00  0.00    +0.227 C 
ATOM     20  O   VAL A   7       9.789  42.197  18.209  0.00  0.00    -0.286 OA
ENDBRANCH  15  19
ENDBRANCH  13  15
ENDBRANCH  10  11
BRANCH  10  21
ATOM     21  CB  PHE A   6      12.024  39.001  20.220  0.00  0.00    +0.055 C 
BRANCH  21  22
ATOM     22  CG  PHE A   6      13.323  38.652  19.617  0.00  0.00    -0.020 A 
ATOM     23  CD2 PHE A   6      13.921  37.431  20.002  0.00  0.00    -0.004 A 
ATOM     24  CE2 PHE A   6      15.156  37.082  19.422  0.00  0.00    -0.000 A 
ATOM     25  CZ  PHE A   6      15.700  37.937  18.456  0.00  0.00    -0.000 A 
ATOM     26  CE1 PHE A   6      15.105  39.100  18.088  0.00  0.00    -0.000 A 
ATOM     27  CD1 PHE A   6      13.918  39.453  18.661  0.00  0.00    -0.004 A 
ENDBRANCH  21  22
ENDBRANCH  10  21
ENDBRANCH   8  10
ENDBRANCH   5   6
BRANCH   5  28
ATOM     28  CB  ASN A   5      12.755  39.499  25.701  0.00  0.00    +0.114 C 
BRANCH  28  29
ATOM     29  CG  ASN A   5      12.588  38.534  26.837  0.00  0.00    +0.222 C 
ATOM     30  ND2 ASN A   5      13.548  38.335  27.745  0.00  0.00    -0.329 N 
ATOM     31 HD21 ASN A   5      13.399  37.658  28.520  0.00  0.00    +0.145 HD
ATOM     32 HD22 ASN A   5      14.445  38.858  27.677  0.00  0.00    +0.145 HD
ATOM     33  OD1 ASN A   5      11.550  37.881  26.978  0.00  0.00    -0.275 OA
ENDBRANCH  28  29
ENDBRANCH   5  28
ENDBRANCH   2   5
BRANCH   1  34
ATOM     34  CA  ASN A   4      17.509  39.240  24.916  0.00  0.00    +0.158 C 
BRANCH  34  36
ATOM     35  C   GLY A   3      17.498  41.193  26.382  0.00  0.00    +0.243 C 
ATOM     36  N   ASN A   4      17.409  39.879  26.235  0.00  0.00    -0.297 N 
ATOM     37  H   ASN A   4      17.265  39.284  27.076  0.00  0.00    +0.150 HD
ATOM     38  O   GLY A   3      17.672  42.031  25.467  0.00  0.00    -0.273 OA
BRANCH  35  39
ATOM     39  CA  GLY A   3      17.365  41.645  27.825  0.00  0.00    +0.176 C 
BRANCH  39  41
ATOM     40  C   SER A   2      15.059  42.453  27.814  0.00  0.00    +0.243 C 
ATOM     41  N   GLY A   3      16.342  42.693  27.945  0.00  0.00    -0.295 N 
ATOM     42  H   GLY A   3      16.648  43.667  28.142  0.00  0.00    +0.150 HD
ATOM     43  O   SER A   2      14.651  41.320  27.514  0.00  0.00    -0.273 OA
BRANCH  40  44
ATOM     44  CA  SER A   2      14.181  43.689  27.986  0.00  0.00    +0.178 C 
BRANCH  44  46
ATOM     45  C   ALA A   1      13.311  44.165  25.823  0.00  0.00    +0.238 C 
ATOM     46  N   SER A   2      13.034  43.695  27.024  0.00  0.00    -0.295 N 
ATOM     47  H   SER A   2      12.087  43.353  27.284  0.00  0.00    +0.150 HD
ATOM     48  O   ALA A   1      14.510  44.535  25.554  0.00  0.00    -0.274 OA
BRANCH  45  49
ATOM     49  CA  ALA A   1      12.265  44.245  24.719  0.00  0.00    +0.145 C 
ATOM     50  CB  ALA A   1      12.391  43.104  23.711  0.00  0.00    +0.028 C 
BRANCH  49  51
ATOM     51  N   ALA A   1      12.556  45.525  24.002  0.00  0.00    -0.238 NA
ATOM     52  H   ALA A   1      13.415  45.588  23.420  0.00  0.00    +0.142 HD
ENDBRANCH  49  51
ENDBRANCH  45  49
ENDBRANCH  44  46
BRANCH  44  53
ATOM     53  CB  SER A   2      13.650  43.828  29.401  0.00  0.00    +0.166 C 
BRANCH  53  54
ATOM     54  OG  SER A   2      12.956  42.644  29.739  0.00  0.00    -0.380 OA
ATOM     55  H   SER A   2      13.575  41.873  29.684  0.00  0.00    +0.211 HD
ENDBRANCH  53  54
ENDBRANCH  44  53
ENDBRANCH  40  44
ENDBRANCH  39  41
ENDBRANCH  35  39
ENDBRANCH  34  36
BRANCH  34  56
ATOM     56  CB  ASN A   4      18.537  38.096  24.930  0.00  0.00    +0.114 C 
BRANCH  56  57
ATOM     57  CG  ASN A   4      19.852  38.589  24.366  0.00  0.00    +0.222 C 
ATOM     58  OD1 ASN A   4      20.798  38.934  25.159  0.00  0.00    -0.275 OA
ATOM     59  ND2 ASN A   4      19.853  38.714  23.035  0.00  0.00    -0.329 N 
ATOM     60 HD21 ASN A   4      20.677  39.125  22.552  0.00  0.00    +0.145 HD
ATOM     61 HD22 ASN A   4      19.029  38.401  22.483  0.00  0.00    +0.145 HD
ENDBRANCH  56  57
ENDBRANCH  34  56
ENDBRANCH   1  34
TORSDOF 23
REMARK  Name = ../refined-set-2016/1rnt/1rnt_pocket.pdb
REMARK  117 active torsions:
REMARK  status: ('A' for Active; 'I' for Inactive)
REMARK    1  A    between atoms: _1  and  _3
REMARK    2  A    between atoms: _3  and  _4
REMARK    3  A    between atoms: _3  and  _6
REMARK    4  A    between atoms: _6  and  _7
REMARK    5  A    between atoms: _9  and  _11
REMARK    6  A    between atoms: _11  and  _12
REMARK    7  A    between atoms: _11  and  _14
REMARK    8  A    between atoms: _14  and  _15
REMARK    9  A    between atoms: _20  and  _22
REMARK   10  A    between atoms: _22  and  _23
REMARK   11  A    between atoms: _22  and  _25
REMARK   12  A    between atoms: _25  and  _26
REMARK   13  A    between atoms: _28  and  _30
REMARK   14  A    between atoms: _30  and  _31
REMARK   15  A    between atoms: _30  and  _33
REMARK   16  A    between atoms: _33  and  _34
REMARK   17  A    between atoms: _39  and  _40
REMARK   18  A    between atoms: _42  and  _44
REMARK   19  A    between atoms: _44  and  _45
REMARK   20  A    between atoms: _44  and  _47
REMARK   21  A    between atoms: _47  and  _48
REMARK   22  A    between atoms: _53  and  _55
REMARK   23  A    between atoms: _55  and  _56
REMARK   24  A    between atoms: _55  and  _58
REMARK   25  A    between atoms: _58  and  _59
REMARK   26  A    between atoms: _59  and  _60
REMARK   27  A    between atoms: _60  and  _61
REMARK   28  A    between atoms: _61  and  _62
REMARK   29  A    between atoms: _66  and  _68
REMARK   30  A    between atoms: _68  and  _69
REMARK   31  A    between atoms: _68  and  _71
REMARK   32  A    between atoms: _71  and  _72
REMARK   33  A    between atoms: _77  and  _78
REMARK   34  A    between atoms: _80  and  _82
REMARK   35  A    between atoms: _82  and  _83
REMARK   36  A    between atoms: _82  and  _85
REMARK   37  A    between atoms: _85  and  _86
REMARK   38  A    between atoms: _91  and  _93
REMARK   39  A    between atoms: _93  and  _94
REMARK   40  A    between atoms: _93  and  _96
REMARK   41  A    between atoms: _96  and  _97
REMARK   42  A    between atoms: _102  and  _104
REMARK   43  A    between atoms: _104  and  _105
REMARK   44  A    between atoms: _104  and  _107
REMARK   45  A    between atoms: _107  and  _108
REMARK   46  A    between atoms: _113  and  _114
REMARK   47  A    between atoms: _116  and  _118
REMARK   48  A    between atoms: _118  and  _119
REMARK   49  A    between atoms: _118  and  _121
REMARK   50  A    between atoms: _121  and  _122
REMARK   51  A    between atoms: _122  and  _123
REMARK   52  A    between atoms: _126  and  _128
REMARK   53  A    between atoms: _128  and  _129
REMARK   54  A    between atoms: _131  and  _133
REMARK   55  A    between atoms: _133  and  _134
REMARK   56  A    between atoms: _133  and  _136
REMARK   57  A    between atoms: _136  and  _137
REMARK   58  A    between atoms: _143  and  _145
REMARK   59  A    between atoms: _145  and  _146
REMARK   60  A    between atoms: _145  and  _148
REMARK   61  A    between atoms: _148  and  _149
REMARK   62  A    between atoms: _155  and  _157
REMARK   63  A    between atoms: _157  and  _158
REMARK   64  A    between atoms: _157  and  _160
REMARK   65  A    between atoms: _160  and  _161
REMARK   66  A    between atoms: _166  and  _167
REMARK   67  A    between atoms: _169  and  _171
REMARK   68  A    between atoms: _171  and  _172
REMARK   69  A    between atoms: _171  and  _174
REMARK   70  A    between atoms: _175  and  _176
REMARK   71  A    between atoms: _179  and  _181
REMARK   72  A    between atoms: _181  and  _182
REMARK   73  A    between atoms: _181  and  _184
REMARK   74  A    between atoms: _184  and  _185
REMARK   75  A    between atoms: _196  and  _197
REMARK   76  A    between atoms: _203  and  _204
REMARK   77  A    between atoms: _209  and  _211
REMARK   78  A    between atoms: _211  and  _212
REMARK   79  A    between atoms: _214  and  _216
REMARK   80  A    between atoms: _216  and  _217
REMARK   81  A    between atoms: _220  and  _222
REMARK   82  A    between atoms: _222  and  _223
REMARK   83  A    between atoms: _222  and  _225
REMARK   84  A    between atoms: _225  and  _226
REMARK   85  A    between atoms: _226  and  _227
REMARK   86  A    between atoms: _227  and  _228
REMARK   87  A    between atoms: _237  and  _239
REMARK   88  A    between atoms: _239  and  _240
REMARK   89  A    between atoms: _239  and  _242
REMARK   90  A    between atoms: _242  and  _243
REMARK   91  A    between atoms: _246  and  _248
REMARK   92  A    between atoms: _248  and  _249
REMARK   93  A    between atoms: _248  and  _251
REMARK   94  A    between atoms: _251  and  _252
REMARK   95  A    between atoms: _257  and  _259
REMARK   96  A    between atoms: _259  and  _260
REMARK   97  A    between atoms: _263  and  _265
REMARK   98  A    between atoms: _265  and  _266
REMARK   99  A    between atoms: _265  and  _268
REMARK  100  A    between atoms: _268  and  _269
REMARK  101  A    between atoms: _271  and  _273
REMARK  102  A    between atoms: _273  and  _274
REMARK  103  A    between atoms: _276  and  _278
REMARK  104  A    between atoms: _278  and  _279
REMARK  105  A    between atoms: _278  and  _281
REMARK  106  A    between atoms: _281  and  _282
REMARK  107  A    between atoms: _287  and  _289
REMARK  108  A    between atoms: _289  and  _290
REMARK  109  A    between atoms: _289  and  _292
REMARK  110  A    between atoms: _292  and  _293
REMARK  111  A    between atoms: _298  and  _300
REMARK  112  A    between atoms: _300  and  _301
REMARK  113  A    between atoms: _300  and  _303
REMARK  114  A    between atoms: _303  and  _304
REMARK  115  A    between atoms: _310  and  _312
REMARK  116  A    between atoms: _312  and  _313
REMARK  117  A    between atoms: _312  and  _315
REMARK                            x       y       z     vdW  Elec       q    Type
REMARK                         _______ _______ _______ _____ _____    ______ ____
ROOT
ATOM      1  O   HOH     1      27.109  38.375  17.213  0.00  0.00    +0.000 OA
ENDROOT
TORSDOF 0
REMARK  Name = ../refined-set-2016/1rnt/1rnt_pocket.pdb
REMARK  117 active torsions:
REMARK  status: ('A' for Active; 'I' for Inactive)
REMARK    1  A    between atoms: _1  and  _3
REMARK    2  A    between atoms: _3  and  _4
REMARK    3  A    between atoms: _3  and  _6
REMARK    4  A    between atoms: _6  and  _7
REMARK    5  A    between atoms: _9  and  _11
REMARK    6  A    between atoms: _11  and  _12
REMARK    7  A    between atoms: _11  and  _14
REMARK    8  A    between atoms: _14  and  _15
REMARK    9  A    between atoms: _20  and  _22
REMARK   10  A    between atoms: _22  and  _23
REMARK   11  A    between atoms: _22  and  _25
REMARK   12  A    between atoms: _25  and  _26
REMARK   13  A    between atoms: _28  and  _30
REMARK   14  A    between atoms: _30  and  _31
REMARK   15  A    between atoms: _30  and  _33
REMARK   16  A    between atoms: _33  and  _34
REMARK   17  A    between atoms: _39  and  _40
REMARK   18  A    between atoms: _42  and  _44
REMARK   19  A    between atoms: _44  and  _45
REMARK   20  A    between atoms: _44  and  _47
REMARK   21  A    between atoms: _47  and  _48
REMARK   22  A    between atoms: _53  and  _55
REMARK   23  A    between atoms: _55  and  _56
REMARK   24  A    between atoms: _55  and  _58
REMARK   25  A    between atoms: _58  and  _59
REMARK   26  A    between atoms: _59  and  _60
REMARK   27  A    between atoms: _60  and  _61
REMARK   28  A    between atoms: _61  and  _62
REMARK   29  A    between atoms: _66  and  _68
REMARK   30  A    between atoms: _68  and  _69
REMARK   31  A    between atoms: _68  and  _71
REMARK   32  A    between atoms: _71  and  _72
REMARK   33  A    between atoms: _77  and  _78
REMARK   34  A    between atoms: _80  and  _82
REMARK   35  A    between atoms: _82  and  _83
REMARK   36  A    between atoms: _82  and  _85
REMARK   37  A    between atoms: _85  and  _86
REMARK   38  A    between atoms: _91  and  _93
REMARK   39  A    between atoms: _93  and  _94
REMARK   40  A    between atoms: _93  and  _96
REMARK   41  A    between atoms: _96  and  _97
REMARK   42  A    between atoms: _102  and  _104
REMARK   43  A    between atoms: _104  and  _105
REMARK   44  A    between atoms: _104  and  _107
REMARK   45  A    between atoms: _107  and  _108
REMARK   46  A    between atoms: _113  and  _114
REMARK   47  A    between atoms: _116  and  _118
REMARK   48  A    between atoms: _118  and  _119
REMARK   49  A    between atoms: _118  and  _121
REMARK   50  A    between atoms: _121  and  _122
REMARK   51  A    between atoms: _122  and  _123
REMARK   52  A    between atoms: _126  and  _128
REMARK   53  A    between atoms: _128  and  _129
REMARK   54  A    between atoms: _131  and  _133
REMARK   55  A    between atoms: _133  and  _134
REMARK   56  A    between atoms: _133  and  _136
REMARK   57  A    between atoms: _136  and  _137
REMARK   58  A    between atoms: _143  and  _145
REMARK   59  A    between atoms: _145  and  _146
REMARK   60  A    between atoms: _145  and  _148
REMARK   61  A    between atoms: _148  and  _149
REMARK   62  A    between atoms: _155  and  _157
REMARK   63  A    between atoms: _157  and  _158
REMARK   64  A    between atoms: _157  and  _160
REMARK   65  A    between atoms: _160  and  _161
REMARK   66  A    between atoms: _166  and  _167
REMARK   67  A    between atoms: _169  and  _171
REMARK   68  A    between atoms: _171  and  _172
REMARK   69  A    between atoms: _171  and  _174
REMARK   70  A    between atoms: _175  and  _176
REMARK   71  A    between atoms: _179  and  _181
REMARK   72  A    between atoms: _181  and  _182
REMARK   73  A    between atoms: _181  and  _184
REMARK   74  A    between atoms: _184  and  _185
REMARK   75  A    between atoms: _196  and  _197
REMARK   76  A    between atoms: _203  and  _204
REMARK   77  A    between atoms: _209  and  _211
REMARK   78  A    between atoms: _211  and  _212
REMARK   79  A    between atoms: _214  and  _216
REMARK   80  A    between atoms: _216  and  _217
REMARK   81  A    between atoms: _220  and  _222
REMARK   82  A    between atoms: _222  and  _223
REMARK   83  A    between atoms: _222  and  _225
REMARK   84  A    between atoms: _225  and  _226
REMARK   85  A    between atoms: _226  and  _227
REMARK   86  A    between atoms: _227  and  _228
REMARK   87  A    between atoms: _237  and  _239
REMARK   88  A    between atoms: _239  and  _240
REMARK   89  A    between atoms: _239  and  _242
REMARK   90  A    between atoms: _242  and  _243
REMARK   91  A    between atoms: _246  and  _248
REMARK   92  A    between atoms: _248  and  _249
REMARK   93  A    between atoms: _248  and  _251
REMARK   94  A    between atoms: _251  and  _252
REMARK   95  A    between atoms: _257  and  _259
REMARK   96  A    between atoms: _259  and  _260
REMARK   97  A    between atoms: _263  and  _265
REMARK   98  A    between atoms: _265  and  _266
REMARK   99  A    between atoms: _265  and  _268
REMARK  100  A    between atoms: _268  and  _269
REMARK  101  A    between atoms: _271  and  _273
REMARK  102  A    between atoms: _273  and  _274
REMARK  103  A    between atoms: _276  and  _278
REMARK  104  A    between atoms: _278  and  _279
REMARK  105  A    between atoms: _278  and  _281
REMARK  106  A    between atoms: _281  and  _282
REMARK  107  A    between atoms: _287  and  _289
REMARK  108  A    between atoms: _289  and  _290
REMARK  109  A    between atoms: _289  and  _292
REMARK  110  A    between atoms: _292  and  _293
REMARK  111  A    between atoms: _298  and  _300
REMARK  112  A    between atoms: _300  and  _301
REMARK  113  A    between atoms: _300  and  _303
REMARK  114  A    between atoms: _303  and  _304
REMARK  115  A    between atoms: _310  and  _312
REMARK  116  A    between atoms: _312  and  _313
REMARK  117  A    between atoms: _312  and  _315
REMARK                            x       y       z     vdW  Elec       q    Type
REMARK                         _______ _______ _______ _____ _____    ______ ____
ROOT
ATOM      1  O   HOH     1      11.073  26.727  15.501  0.00  0.00    +0.000 OA
ENDROOT
TORSDOF 0
REMARK  Name = ../refined-set-2016/1rnt/1rnt_pocket.pdb
REMARK  117 active torsions:
REMARK  status: ('A' for Active; 'I' for Inactive)
REMARK    1  A    between atoms: _1  and  _3
REMARK    2  A    between atoms: _3  and  _4
REMARK    3  A    between atoms: _3  and  _6
REMARK    4  A    between atoms: _6  and  _7
REMARK    5  A    between atoms: _9  and  _11
REMARK    6  A    between atoms: _11  and  _12
REMARK    7  A    between atoms: _11  and  _14
REMARK    8  A    between atoms: _14  and  _15
REMARK    9  A    between atoms: _20  and  _22
REMARK   10  A    between atoms: _22  and  _23
REMARK   11  A    between atoms: _22  and  _25
REMARK   12  A    between atoms: _25  and  _26
REMARK   13  A    between atoms: _28  and  _30
REMARK   14  A    between atoms: _30  and  _31
REMARK   15  A    between atoms: _30  and  _33
REMARK   16  A    between atoms: _33  and  _34
REMARK   17  A    between atoms: _39  and  _40
REMARK   18  A    between atoms: _42  and  _44
REMARK   19  A    between atoms: _44  and  _45
REMARK   20  A    between atoms: _44  and  _47
REMARK   21  A    between atoms: _47  and  _48
REMARK   22  A    between atoms: _53  and  _55
REMARK   23  A    between atoms: _55  and  _56
REMARK   24  A    between atoms: _55  and  _58
REMARK   25  A    between atoms: _58  and  _59
REMARK   26  A    between atoms: _59  and  _60
REMARK   27  A    between atoms: _60  and  _61
REMARK   28  A    between atoms: _61  and  _62
REMARK   29  A    between atoms: _66  and  _68
REMARK   30  A    between atoms: _68  and  _69
REMARK   31  A    between atoms: _68  and  _71
REMARK   32  A    between atoms: _71  and  _72
REMARK   33  A    between atoms: _77  and  _78
REMARK   34  A    between atoms: _80  and  _82
REMARK   35  A    between atoms: _82  and  _83
REMARK   36  A    between atoms: _82  and  _85
REMARK   37  A    between atoms: _85  and  _86
REMARK   38  A    between atoms: _91  and  _93
REMARK   39  A    between atoms: _93  and  _94
REMARK   40  A    between atoms: _93  and  _96
REMARK   41  A    between atoms: _96  and  _97
REMARK   42  A    between atoms: _102  and  _104
REMARK   43  A    between atoms: _104  and  _105
REMARK   44  A    between atoms: _104  and  _107
REMARK   45  A    between atoms: _107  and  _108
REMARK   46  A    between atoms: _113  and  _114
REMARK   47  A    between atoms: _116  and  _118
REMARK   48  A    between atoms: _118  and  _119
REMARK   49  A    between atoms: _118  and  _121
REMARK   50  A    between atoms: _121  and  _122
REMARK   51  A    between atoms: _122  and  _123
REMARK   52  A    between atoms: _126  and  _128
REMARK   53  A    between atoms: _128  and  _129
REMARK   54  A    between atoms: _131  and  _133
REMARK   55  A    between atoms: _133  and  _134
REMARK   56  A    between atoms: _133  and  _136
REMARK   57  A    between atoms: _136  and  _137
REMARK   58  A    between atoms: _143  and  _145
REMARK   59  A    between atoms: _145  and  _146
REMARK   60  A    between atoms: _145  and  _148
REMARK   61  A    between atoms: _148  and  _149
REMARK   62  A    between atoms: _155  and  _157
REMARK   63  A    between atoms: _157  and  _158
REMARK   64  A    between atoms: _157  and  _160
REMARK   65  A    between atoms: _160  and  _161
REMARK   66  A    between atoms: _166  and  _167
REMARK   67  A    between atoms: _169  and  _171
REMARK   68  A    between atoms: _171  and  _172
REMARK   69  A    between atoms: _171  and  _174
REMARK   70  A    between atoms: _175  and  _176
REMARK   71  A    between atoms: _179  and  _181
REMARK   72  A    between atoms: _181  and  _182
REMARK   73  A    between atoms: _181  and  _184
REMARK   74  A    between atoms: _184  and  _185
REMARK   75  A    between atoms: _196  and  _197
REMARK   76  A    between atoms: _203  and  _204
REMARK   77  A    between atoms: _209  and  _211
REMARK   78  A    between atoms: _211  and  _212
REMARK   79  A    between atoms: _214  and  _216
REMARK   80  A    between atoms: _216  and  _217
REMARK   81  A    between atoms: _220  and  _222
REMARK   82  A    between atoms: _222  and  _223
REMARK   83  A    between atoms: _222  and  _225
REMARK   84  A    between atoms: _225  and  _226
REMARK   85  A    between atoms: _226  and  _227
REMARK   86  A    between atoms: _227  and  _228
REMARK   87  A    between atoms: _237  and  _239
REMARK   88  A    between atoms: _239  and  _240
REMARK   89  A    between atoms: _239  and  _242
REMARK   90  A    between atoms: _242  and  _243
REMARK   91  A    between atoms: _246  and  _248
REMARK   92  A    between atoms: _248  and  _249
REMARK   93  A    between atoms: _248  and  _251
REMARK   94  A    between atoms: _251  and  _252
REMARK   95  A    between atoms: _257  and  _259
REMARK   96  A    between atoms: _259  and  _260
REMARK   97  A    between atoms: _263  and  _265
REMARK   98  A    between atoms: _265  and  _266
REMARK   99  A    between atoms: _265  and  _268
REMARK  100  A    between atoms: _268  and  _269
REMARK  101  A    between atoms: _271  and  _273
REMARK  102  A    between atoms: _273  and  _274
REMARK  103  A    between atoms: _276  and  _278
REMARK  104  A    between atoms: _278  and  _279
REMARK  105  A    between atoms: _278  and  _281
REMARK  106  A    between atoms: _281  and  _282
REMARK  107  A    between atoms: _287  and  _289
REMARK  108  A    between atoms: _289  and  _290
REMARK  109  A    between atoms: _289  and  _292
REMARK  110  A    between atoms: _292  and  _293
REMARK  111  A    between atoms: _298  and  _300
REMARK  112  A    between atoms: _300  and  _301
REMARK  113  A    between atoms: _300  and  _303
REMARK  114  A    between atoms: _303  and  _304
REMARK  115  A    between atoms: _310  and  _312
REMARK  116  A    between atoms: _312  and  _313
REMARK  117  A    between atoms: _312  and  _315
REMARK                            x       y       z     vdW  Elec       q    Type
REMARK                         _______ _______ _______ _____ _____    ______ ____
ROOT
ATOM      1  O   HOH     1      26.276  37.098  15.102  0.00  0.00    +0.000 OA
ENDROOT
TORSDOF 0
REMARK  Name = ../refined-set-2016/1rnt/1rnt_pocket.pdb
REMARK  117 active torsions:
REMARK  status: ('A' for Active; 'I' for Inactive)
REMARK    1  A    between atoms: _1  and  _3
REMARK    2  A    between atoms: _3  and  _4
REMARK    3  A    between atoms: _3  and  _6
REMARK    4  A    between atoms: _6  and  _7
REMARK    5  A    between atoms: _9  and  _11
REMARK    6  A    between atoms: _11  and  _12
REMARK    7  A    between atoms: _11  and  _14
REMARK    8  A    between atoms: _14  and  _15
REMARK    9  A    between atoms: _20  and  _22
REMARK   10  A    between atoms: _22  and  _23
REMARK   11  A    between atoms: _22  and  _25
REMARK   12  A    between atoms: _25  and  _26
REMARK   13  A    between atoms: _28  and  _30
REMARK   14  A    between atoms: _30  and  _31
REMARK   15  A    between atoms: _30  and  _33
REMARK   16  A    between atoms: _33  and  _34
REMARK   17  A    between atoms: _39  and  _40
REMARK   18  A    between atoms: _42  and  _44
REMARK   19  A    between atoms: _44  and  _45
REMARK   20  A    between atoms: _44  and  _47
REMARK   21  A    between atoms: _47  and  _48
REMARK   22  A    between atoms: _53  and  _55
REMARK   23  A    between atoms: _55  and  _56
REMARK   24  A    between atoms: _55  and  _58
REMARK   25  A    between atoms: _58  and  _59
REMARK   26  A    between atoms: _59  and  _60
REMARK   27  A    between atoms: _60  and  _61
REMARK   28  A    between atoms: _61  and  _62
REMARK   29  A    between atoms: _66  and  _68
REMARK   30  A    between atoms: _68  and  _69
REMARK   31  A    between atoms: _68  and  _71
REMARK   32  A    between atoms: _71  and  _72
REMARK   33  A    between atoms: _77  and  _78
REMARK   34  A    between atoms: _80  and  _82
REMARK   35  A    between atoms: _82  and  _83
REMARK   36  A    between atoms: _82  and  _85
REMARK   37  A    between atoms: _85  and  _86
REMARK   38  A    between atoms: _91  and  _93
REMARK   39  A    between atoms: _93  and  _94
REMARK   40  A    between atoms: _93  and  _96
REMARK   41  A    between atoms: _96  and  _97
REMARK   42  A    between atoms: _102  and  _104
REMARK   43  A    between atoms: _104  and  _105
REMARK   44  A    between atoms: _104  and  _107
REMARK   45  A    between atoms: _107  and  _108
REMARK   46  A    between atoms: _113  and  _114
REMARK   47  A    between atoms: _116  and  _118
REMARK   48  A    between atoms: _118  and  _119
REMARK   49  A    between atoms: _118  and  _121
REMARK   50  A    between atoms: _121  and  _122
REMARK   51  A    between atoms: _122  and  _123
REMARK   52  A    between atoms: _126  and  _128
REMARK   53  A    between atoms: _128  and  _129
REMARK   54  A    between atoms: _131  and  _133
REMARK   55  A    between atoms: _133  and  _134
REMARK   56  A    between atoms: _133  and  _136
REMARK   57  A    between atoms: _136  and  _137
REMARK   58  A    between atoms: _143  and  _145
REMARK   59  A    between atoms: _145  and  _146
REMARK   60  A    between atoms: _145  and  _148
REMARK   61  A    between atoms: _148  and  _149
REMARK   62  A    between atoms: _155  and  _157
REMARK   63  A    between atoms: _157  and  _158
REMARK   64  A    between atoms: _157  and  _160
REMARK   65  A    between atoms: _160  and  _161
REMARK   66  A    between atoms: _166  and  _167
REMARK   67  A    between atoms: _169  and  _171
REMARK   68  A    between atoms: _171  and  _172
REMARK   69  A    between atoms: _171  and  _174
REMARK   70  A    between atoms: _175  and  _176
REMARK   71  A    between atoms: _179  and  _181
REMARK   72  A    between atoms: _181  and  _182
REMARK   73  A    between atoms: _181  and  _184
REMARK   74  A    between atoms: _184  and  _185
REMARK   75  A    between atoms: _196  and  _197
REMARK   76  A    between atoms: _203  and  _204
REMARK   77  A    between atoms: _209  and  _211
REMARK   78  A    between atoms: _211  and  _212
REMARK   79  A    between atoms: _214  and  _216
REMARK   80  A    between atoms: _216  and  _217
REMARK   81  A    between atoms: _220  and  _222
REMARK   82  A    between atoms: _222  and  _223
REMARK   83  A    between atoms: _222  and  _225
REMARK   84  A    between atoms: _225  and  _226
REMARK   85  A    between atoms: _226  and  _227
REMARK   86  A    between atoms: _227  and  _228
REMARK   87  A    between atoms: _237  and  _239
REMARK   88  A    between atoms: _239  and  _240
REMARK   89  A    between atoms: _239  and  _242
REMARK   90  A    between atoms: _242  and  _243
REMARK   91  A    between atoms: _246  and  _248
REMARK   92  A    between atoms: _248  and  _249
REMARK   93  A    between atoms: _248  and  _251
REMARK   94  A    between atoms: _251  and  _252
REMARK   95  A    between atoms: _257  and  _259
REMARK   96  A    between atoms: _259  and  _260
REMARK   97  A    between atoms: _263  and  _265
REMARK   98  A    between atoms: _265  and  _266
REMARK   99  A    between atoms: _265  and  _268
REMARK  100  A    between atoms: _268  and  _269
REMARK  101  A    between atoms: _271  and  _273
REMARK  102  A    between atoms: _273  and  _274
REMARK  103  A    between atoms: _276  and  _278
REMARK  104  A    between atoms: _278  and  _279
REMARK  105  A    between atoms: _278  and  _281
REMARK  106  A    between atoms: _281  and  _282
REMARK  107  A    between atoms: _287  and  _289
REMARK  108  A    between atoms: _289  and  _290
REMARK  109  A    between atoms: _289  and  _292
REMARK  110  A    between atoms: _292  and  _293
REMARK  111  A    between atoms: _298  and  _300
REMARK  112  A    between atoms: _300  and  _301
REMARK  113  A    between atoms: _300  and  _303
REMARK  114  A    between atoms: _303  and  _304
REMARK  115  A    between atoms: _310  and  _312
REMARK  116  A    between atoms: _312  and  _313
REMARK  117  A    between atoms: _312  and  _315
REMARK                            x       y       z     vdW  Elec       q    Type
REMARK                         _______ _______ _______ _____ _____    ______ ____
ROOT
ATOM      1  O   HOH     1      21.902  41.119  18.707  0.00  0.00    +0.000 OA
ENDROOT
TORSDOF 0
REMARK  Name = ../refined-set-2016/1rnt/1rnt_pocket.pdb
REMARK  117 active torsions:
REMARK  status: ('A' for Active; 'I' for Inactive)
REMARK    1  A    between atoms: _1  and  _3
REMARK    2  A    between atoms: _3  and  _4
REMARK    3  A    between atoms: _3  and  _6
REMARK    4  A    between atoms: _6  and  _7
REMARK    5  A    between atoms: _9  and  _11
REMARK    6  A    between atoms: _11  and  _12
REMARK    7  A    between atoms: _11  and  _14
REMARK    8  A    between atoms: _14  and  _15
REMARK    9  A    between atoms: _20  and  _22
REMARK   10  A    between atoms: _22  and  _23
REMARK   11  A    between atoms: _22  and  _25
REMARK   12  A    between atoms: _25  and  _26
REMARK   13  A    between atoms: _28  and  _30
REMARK   14  A    between atoms: _30  and  _31
REMARK   15  A    between atoms: _30  and  _33
REMARK   16  A    between atoms: _33  and  _34
REMARK   17  A    between atoms: _39  and  _40
REMARK   18  A    between atoms: _42  and  _44
REMARK   19  A    between atoms: _44  and  _45
REMARK   20  A    between atoms: _44  and  _47
REMARK   21  A    between atoms: _47  and  _48
REMARK   22  A    between atoms: _53  and  _55
REMARK   23  A    between atoms: _55  and  _56
REMARK   24  A    between atoms: _55  and  _58
REMARK   25  A    between atoms: _58  and  _59
REMARK   26  A    between atoms: _59  and  _60
REMARK   27  A    between atoms: _60  and  _61
REMARK   28  A    between atoms: _61  and  _62
REMARK   29  A    between atoms: _66  and  _68
REMARK   30  A    between atoms: _68  and  _69
REMARK   31  A    between atoms: _68  and  _71
REMARK   32  A    between atoms: _71  and  _72
REMARK   33  A    between atoms: _77  and  _78
REMARK   34  A    between atoms: _80  and  _82
REMARK   35  A    between atoms: _82  and  _83
REMARK   36  A    between atoms: _82  and  _85
REMARK   37  A    between atoms: _85  and  _86
REMARK   38  A    between atoms: _91  and  _93
REMARK   39  A    between atoms: _93  and  _94
REMARK   40  A    between atoms: _93  and  _96
REMARK   41  A    between atoms: _96  and  _97
REMARK   42  A    between atoms: _102  and  _104
REMARK   43  A    between atoms: _104  and  _105
REMARK   44  A    between atoms: _104  and  _107
REMARK   45  A    between atoms: _107  and  _108
REMARK   46  A    between atoms: _113  and  _114
REMARK   47  A    between atoms: _116  and  _118
REMARK   48  A    between atoms: _118  and  _119
REMARK   49  A    between atoms: _118  and  _121
REMARK   50  A    between atoms: _121  and  _122
REMARK   51  A    between atoms: _122  and  _123
REMARK   52  A    between atoms: _126  and  _128
REMARK   53  A    between atoms: _128  and  _129
REMARK   54  A    between atoms: _131  and  _133
REMARK   55  A    between atoms: _133  and  _134
REMARK   56  A    between atoms: _133  and  _136
REMARK   57  A    between atoms: _136  and  _137
REMARK   58  A    between atoms: _143  and  _145
REMARK   59  A    between atoms: _145  and  _146
REMARK   60  A    between atoms: _145  and  _148
REMARK   61  A    between atoms: _148  and  _149
REMARK   62  A    between atoms: _155  and  _157
REMARK   63  A    between atoms: _157  and  _158
REMARK   64  A    between atoms: _157  and  _160
REMARK   65  A    between atoms: _160  and  _161
REMARK   66  A    between atoms: _166  and  _167
REMARK   67  A    between atoms: _169  and  _171
REMARK   68  A    between atoms: _171  and  _172
REMARK   69  A    between atoms: _171  and  _174
REMARK   70  A    between atoms: _175  and  _176
REMARK   71  A    between atoms: _179  and  _181
REMARK   72  A    between atoms: _181  and  _182
REMARK   73  A    between atoms: _181  and  _184
REMARK   74  A    between atoms: _184  and  _185
REMARK   75  A    between atoms: _196  and  _197
REMARK   76  A    between atoms: _203  and  _204
REMARK   77  A    between atoms: _209  and  _211
REMARK   78  A    between atoms: _211  and  _212
REMARK   79  A    between atoms: _214  and  _216
REMARK   80  A    between atoms: _216  and  _217
REMARK   81  A    between atoms: _220  and  _222
REMARK   82  A    between atoms: _222  and  _223
REMARK   83  A    between atoms: _222  and  _225
REMARK   84  A    between atoms: _225  and  _226
REMARK   85  A    between atoms: _226  and  _227
REMARK   86  A    between atoms: _227  and  _228
REMARK   87  A    between atoms: _237  and  _239
REMARK   88  A    between atoms: _239  and  _240
REMARK   89  A    between atoms: _239  and  _242
REMARK   90  A    between atoms: _242  and  _243
REMARK   91  A    between atoms: _246  and  _248
REMARK   92  A    between atoms: _248  and  _249
REMARK   93  A    between atoms: _248  and  _251
REMARK   94  A    between atoms: _251  and  _252
REMARK   95  A    between atoms: _257  and  _259
REMARK   96  A    between atoms: _259  and  _260
REMARK   97  A    between atoms: _263  and  _265
REMARK   98  A    between atoms: _265  and  _266
REMARK   99  A    between atoms: _265  and  _268
REMARK  100  A    between atoms: _268  and  _269
REMARK  101  A    between atoms: _271  and  _273
REMARK  102  A    between atoms: _273  and  _274
REMARK  103  A    between atoms: _276  and  _278
REMARK  104  A    between atoms: _278  and  _279
REMARK  105  A    between atoms: _278  and  _281
REMARK  106  A    between atoms: _281  and  _282
REMARK  107  A    between atoms: _287  and  _289
REMARK  108  A    between atoms: _289  and  _290
REMARK  109  A    between atoms: _289  and  _292
REMARK  110  A    between atoms: _292  and  _293
REMARK  111  A    between atoms: _298  and  _300
REMARK  112  A    between atoms: _300  and  _301
REMARK  113  A    between atoms: _300  and  _303
REMARK  114  A    between atoms: _303  and  _304
REMARK  115  A    between atoms: _310  and  _312
REMARK  116  A    between atoms: _312  and  _313
REMARK  117  A    between atoms: _312  and  _315
REMARK                            x       y       z     vdW  Elec       q    Type
REMARK                         _______ _______ _______ _____ _____    ______ ____
ROOT
ATOM      1  O   HOH     1       9.318  26.962  23.695  0.00  0.00    +0.000 OA
ENDROOT
TORSDOF 0
REMARK  Name = ../refined-set-2016/1rnt/1rnt_pocket.pdb
REMARK  117 active torsions:
REMARK  status: ('A' for Active; 'I' for Inactive)
REMARK    1  A    between atoms: _1  and  _3
REMARK    2  A    between atoms: _3  and  _4
REMARK    3  A    between atoms: _3  and  _6
REMARK    4  A    between atoms: _6  and  _7
REMARK    5  A    between atoms: _9  and  _11
REMARK    6  A    between atoms: _11  and  _12
REMARK    7  A    between atoms: _11  and  _14
REMARK    8  A    between atoms: _14  and  _15
REMARK    9  A    between atoms: _20  and  _22
REMARK   10  A    between atoms: _22  and  _23
REMARK   11  A    between atoms: _22  and  _25
REMARK   12  A    between atoms: _25  and  _26
REMARK   13  A    between atoms: _28  and  _30
REMARK   14  A    between atoms: _30  and  _31
REMARK   15  A    between atoms: _30  and  _33
REMARK   16  A    between atoms: _33  and  _34
REMARK   17  A    between atoms: _39  and  _40
REMARK   18  A    between atoms: _42  and  _44
REMARK   19  A    between atoms: _44  and  _45
REMARK   20  A    between atoms: _44  and  _47
REMARK   21  A    between atoms: _47  and  _48
REMARK   22  A    between atoms: _53  and  _55
REMARK   23  A    between atoms: _55  and  _56
REMARK   24  A    between atoms: _55  and  _58
REMARK   25  A    between atoms: _58  and  _59
REMARK   26  A    between atoms: _59  and  _60
REMARK   27  A    between atoms: _60  and  _61
REMARK   28  A    between atoms: _61  and  _62
REMARK   29  A    between atoms: _66  and  _68
REMARK   30  A    between atoms: _68  and  _69
REMARK   31  A    between atoms: _68  and  _71
REMARK   32  A    between atoms: _71  and  _72
REMARK   33  A    between atoms: _77  and  _78
REMARK   34  A    between atoms: _80  and  _82
REMARK   35  A    between atoms: _82  and  _83
REMARK   36  A    between atoms: _82  and  _85
REMARK   37  A    between atoms: _85  and  _86
REMARK   38  A    between atoms: _91  and  _93
REMARK   39  A    between atoms: _93  and  _94
REMARK   40  A    between atoms: _93  and  _96
REMARK   41  A    between atoms: _96  and  _97
REMARK   42  A    between atoms: _102  and  _104
REMARK   43  A    between atoms: _104  and  _105
REMARK   44  A    between atoms: _104  and  _107
REMARK   45  A    between atoms: _107  and  _108
REMARK   46  A    between atoms: _113  and  _114
REMARK   47  A    between atoms: _116  and  _118
REMARK   48  A    between atoms: _118  and  _119
REMARK   49  A    between atoms: _118  and  _121
REMARK   50  A    between atoms: _121  and  _122
REMARK   51  A    between atoms: _122  and  _123
REMARK   52  A    between atoms: _126  and  _128
REMARK   53  A    between atoms: _128  and  _129
REMARK   54  A    between atoms: _131  and  _133
REMARK   55  A    between atoms: _133  and  _134
REMARK   56  A    between atoms: _133  and  _136
REMARK   57  A    between atoms: _136  and  _137
REMARK   58  A    between atoms: _143  and  _145
REMARK   59  A    between atoms: _145  and  _146
REMARK   60  A    between atoms: _145  and  _148
REMARK   61  A    between atoms: _148  and  _149
REMARK   62  A    between atoms: _155  and  _157
REMARK   63  A    between atoms: _157  and  _158
REMARK   64  A    between atoms: _157  and  _160
REMARK   65  A    between atoms: _160  and  _161
REMARK   66  A    between atoms: _166  and  _167
REMARK   67  A    between atoms: _169  and  _171
REMARK   68  A    between atoms: _171  and  _172
REMARK   69  A    between atoms: _171  and  _174
REMARK   70  A    between atoms: _175  and  _176
REMARK   71  A    between atoms: _179  and  _181
REMARK   72  A    between atoms: _181  and  _182
REMARK   73  A    between atoms: _181  and  _184
REMARK   74  A    between atoms: _184  and  _185
REMARK   75  A    between atoms: _196  and  _197
REMARK   76  A    between atoms: _203  and  _204
REMARK   77  A    between atoms: _209  and  _211
REMARK   78  A    between atoms: _211  and  _212
REMARK   79  A    between atoms: _214  and  _216
REMARK   80  A    between atoms: _216  and  _217
REMARK   81  A    between atoms: _220  and  _222
REMARK   82  A    between atoms: _222  and  _223
REMARK   83  A    between atoms: _222  and  _225
REMARK   84  A    between atoms: _225  and  _226
REMARK   85  A    between atoms: _226  and  _227
REMARK   86  A    between atoms: _227  and  _228
REMARK   87  A    between atoms: _237  and  _239
REMARK   88  A    between atoms: _239  and  _240
REMARK   89  A    between atoms: _239  and  _242
REMARK   90  A    between atoms: _242  and  _243
REMARK   91  A    between atoms: _246  and  _248
REMARK   92  A    between atoms: _248  and  _249
REMARK   93  A    between atoms: _248  and  _251
REMARK   94  A    between atoms: _251  and  _252
REMARK   95  A    between atoms: _257  and  _259
REMARK   96  A    between atoms: _259  and  _260
REMARK   97  A    between atoms: _263  and  _265
REMARK   98  A    between atoms: _265  and  _266
REMARK   99  A    between atoms: _265  and  _268
REMARK  100  A    between atoms: _268  and  _269
REMARK  101  A    between atoms: _271  and  _273
REMARK  102  A    between atoms: _273  and  _274
REMARK  103  A    between atoms: _276  and  _278
REMARK  104  A    between atoms: _278  and  _279
REMARK  105  A    between atoms: _278  and  _281
REMARK  106  A    between atoms: _281  and  _282
REMARK  107  A    between atoms: _287  and  _289
REMARK  108  A    between atoms: _289  and  _290
REMARK  109  A    between atoms: _289  and  _292
REMARK  110  A    between atoms: _292  and  _293
REMARK  111  A    between atoms: _298  and  _300
REMARK  112  A    between atoms: _300  and  _301
REMARK  113  A    between atoms: _300  and  _303
REMARK  114  A    between atoms: _303  and  _304
REMARK  115  A    between atoms: _310  and  _312
REMARK  116  A    between atoms: _312  and  _313
REMARK  117  A    between atoms: _312  and  _315
REMARK                            x       y       z     vdW  Elec       q    Type
REMARK                         _______ _______ _______ _____ _____    ______ ____
ROOT
ATOM      1  O   HOH     1       7.919  30.901  27.024  0.00  0.00    +0.000 OA
ENDROOT
TORSDOF 0
REMARK  Name = ../refined-set-2016/1rnt/1rnt_pocket.pdb
REMARK  117 active torsions:
REMARK  status: ('A' for Active; 'I' for Inactive)
REMARK    1  A    between atoms: _1  and  _3
REMARK    2  A    between atoms: _3  and  _4
REMARK    3  A    between atoms: _3  and  _6
REMARK    4  A    between atoms: _6  and  _7
REMARK    5  A    between atoms: _9  and  _11
REMARK    6  A    between atoms: _11  and  _12
REMARK    7  A    between atoms: _11  and  _14
REMARK    8  A    between atoms: _14  and  _15
REMARK    9  A    between atoms: _20  and  _22
REMARK   10  A    between atoms: _22  and  _23
REMARK   11  A    between atoms: _22  and  _25
REMARK   12  A    between atoms: _25  and  _26
REMARK   13  A    between atoms: _28  and  _30
REMARK   14  A    between atoms: _30  and  _31
REMARK   15  A    between atoms: _30  and  _33
REMARK   16  A    between atoms: _33  and  _34
REMARK   17  A    between atoms: _39  and  _40
REMARK   18  A    between atoms: _42  and  _44
REMARK   19  A    between atoms: _44  and  _45
REMARK   20  A    between atoms: _44  and  _47
REMARK   21  A    between atoms: _47  and  _48
REMARK   22  A    between atoms: _53  and  _55
REMARK   23  A    between atoms: _55  and  _56
REMARK   24  A    between atoms: _55  and  _58
REMARK   25  A    between atoms: _58  and  _59
REMARK   26  A    between atoms: _59  and  _60
REMARK   27  A    between atoms: _60  and  _61
REMARK   28  A    between atoms: _61  and  _62
REMARK   29  A    between atoms: _66  and  _68
REMARK   30  A    between atoms: _68  and  _69
REMARK   31  A    between atoms: _68  and  _71
REMARK   32  A    between atoms: _71  and  _72
REMARK   33  A    between atoms: _77  and  _78
REMARK   34  A    between atoms: _80  and  _82
REMARK   35  A    between atoms: _82  and  _83
REMARK   36  A    between atoms: _82  and  _85
REMARK   37  A    between atoms: _85  and  _86
REMARK   38  A    between atoms: _91  and  _93
REMARK   39  A    between atoms: _93  and  _94
REMARK   40  A    between atoms: _93  and  _96
REMARK   41  A    between atoms: _96  and  _97
REMARK   42  A    between atoms: _102  and  _104
REMARK   43  A    between atoms: _104  and  _105
REMARK   44  A    between atoms: _104  and  _107
REMARK   45  A    between atoms: _107  and  _108
REMARK   46  A    between atoms: _113  and  _114
REMARK   47  A    between atoms: _116  and  _118
REMARK   48  A    between atoms: _118  and  _119
REMARK   49  A    between atoms: _118  and  _121
REMARK   50  A    between atoms: _121  and  _122
REMARK   51  A    between atoms: _122  and  _123
REMARK   52  A    between atoms: _126  and  _128
REMARK   53  A    between atoms: _128  and  _129
REMARK   54  A    between atoms: _131  and  _133
REMARK   55  A    between atoms: _133  and  _134
REMARK   56  A    between atoms: _133  and  _136
REMARK   57  A    between atoms: _136  and  _137
REMARK   58  A    between atoms: _143  and  _145
REMARK   59  A    between atoms: _145  and  _146
REMARK   60  A    between atoms: _145  and  _148
REMARK   61  A    between atoms: _148  and  _149
REMARK   62  A    between atoms: _155  and  _157
REMARK   63  A    between atoms: _157  and  _158
REMARK   64  A    between atoms: _157  and  _160
REMARK   65  A    between atoms: _160  and  _161
REMARK   66  A    between atoms: _166  and  _167
REMARK   67  A    between atoms: _169  and  _171
REMARK   68  A    between atoms: _171  and  _172
REMARK   69  A    between atoms: _171  and  _174
REMARK   70  A    between atoms: _175  and  _176
REMARK   71  A    between atoms: _179  and  _181
REMARK   72  A    between atoms: _181  and  _182
REMARK   73  A    between atoms: _181  and  _184
REMARK   74  A    between atoms: _184  and  _185
REMARK   75  A    between atoms: _196  and  _197
REMARK   76  A    between atoms: _203  and  _204
REMARK   77  A    between atoms: _209  and  _211
REMARK   78  A    between atoms: _211  and  _212
REMARK   79  A    between atoms: _214  and  _216
REMARK   80  A    between atoms: _216  and  _217
REMARK   81  A    between atoms: _220  and  _222
REMARK   82  A    between atoms: _222  and  _223
REMARK   83  A    between atoms: _222  and  _225
REMARK   84  A    between atoms: _225  and  _226
REMARK   85  A    between atoms: _226  and  _227
REMARK   86  A    between atoms: _227  and  _228
REMARK   87  A    between atoms: _237  and  _239
REMARK   88  A    between atoms: _239  and  _240
REMARK   89  A    between atoms: _239  and  _242
REMARK   90  A    between atoms: _242  and  _243
REMARK   91  A    between atoms: _246  and  _248
REMARK   92  A    between atoms: _248  and  _249
REMARK   93  A    between atoms: _248  and  _251
REMARK   94  A    between atoms: _251  and  _252
REMARK   95  A    between atoms: _257  and  _259
REMARK   96  A    between atoms: _259  and  _260
REMARK   97  A    between atoms: _263  and  _265
REMARK   98  A    between atoms: _265  and  _266
REMARK   99  A    between atoms: _265  and  _268
REMARK  100  A    between atoms: _268  and  _269
REMARK  101  A    between atoms: _271  and  _273
REMARK  102  A    between atoms: _273  and  _274
REMARK  103  A    between atoms: _276  and  _278
REMARK  104  A    between atoms: _278  and  _279
REMARK  105  A    between atoms: _278  and  _281
REMARK  106  A    between atoms: _281  and  _282
REMARK  107  A    between atoms: _287  and  _289
REMARK  108  A    between atoms: _289  and  _290
REMARK  109  A    between atoms: _289  and  _292
REMARK  110  A    between atoms: _292  and  _293
REMARK  111  A    between atoms: _298  and  _300
REMARK  112  A    between atoms: _300  and  _301
REMARK  113  A    between atoms: _300  and  _303
REMARK  114  A    between atoms: _303  and  _304
REMARK  115  A    between atoms: _310  and  _312
REMARK  116  A    between atoms: _312  and  _313
REMARK  117  A    between atoms: _312  and  _315
REMARK                            x       y       z     vdW  Elec       q    Type
REMARK                         _______ _______ _______ _____ _____    ______ ____
ROOT
ATOM      1  O   HOH     1      15.948  27.862  27.389  0.00  0.00    +0.000 OA
ENDROOT
TORSDOF 0
REMARK  Name = ../refined-set-2016/1rnt/1rnt_pocket.pdb
REMARK  117 active torsions:
REMARK  status: ('A' for Active; 'I' for Inactive)
REMARK    1  A    between atoms: _1  and  _3
REMARK    2  A    between atoms: _3  and  _4
REMARK    3  A    between atoms: _3  and  _6
REMARK    4  A    between atoms: _6  and  _7
REMARK    5  A    between atoms: _9  and  _11
REMARK    6  A    between atoms: _11  and  _12
REMARK    7  A    between atoms: _11  and  _14
REMARK    8  A    between atoms: _14  and  _15
REMARK    9  A    between atoms: _20  and  _22
REMARK   10  A    between atoms: _22  and  _23
REMARK   11  A    between atoms: _22  and  _25
REMARK   12  A    between atoms: _25  and  _26
REMARK   13  A    between atoms: _28  and  _30
REMARK   14  A    between atoms: _30  and  _31
REMARK   15  A    between atoms: _30  and  _33
REMARK   16  A    between atoms: _33  and  _34
REMARK   17  A    between atoms: _39  and  _40
REMARK   18  A    between atoms: _42  and  _44
REMARK   19  A    between atoms: _44  and  _45
REMARK   20  A    between atoms: _44  and  _47
REMARK   21  A    between atoms: _47  and  _48
REMARK   22  A    between atoms: _53  and  _55
REMARK   23  A    between atoms: _55  and  _56
REMARK   24  A    between atoms: _55  and  _58
REMARK   25  A    between atoms: _58  and  _59
REMARK   26  A    between atoms: _59  and  _60
REMARK   27  A    between atoms: _60  and  _61
REMARK   28  A    between atoms: _61  and  _62
REMARK   29  A    between atoms: _66  and  _68
REMARK   30  A    between atoms: _68  and  _69
REMARK   31  A    between atoms: _68  and  _71
REMARK   32  A    between atoms: _71  and  _72
REMARK   33  A    between atoms: _77  and  _78
REMARK   34  A    between atoms: _80  and  _82
REMARK   35  A    between atoms: _82  and  _83
REMARK   36  A    between atoms: _82  and  _85
REMARK   37  A    between atoms: _85  and  _86
REMARK   38  A    between atoms: _91  and  _93
REMARK   39  A    between atoms: _93  and  _94
REMARK   40  A    between atoms: _93  and  _96
REMARK   41  A    between atoms: _96  and  _97
REMARK   42  A    between atoms: _102  and  _104
REMARK   43  A    between atoms: _104  and  _105
REMARK   44  A    between atoms: _104  and  _107
REMARK   45  A    between atoms: _107  and  _108
REMARK   46  A    between atoms: _113  and  _114
REMARK   47  A    between atoms: _116  and  _118
REMARK   48  A    between atoms: _118  and  _119
REMARK   49  A    between atoms: _118  and  _121
REMARK   50  A    between atoms: _121  and  _122
REMARK   51  A    between atoms: _122  and  _123
REMARK   52  A    between atoms: _126  and  _128
REMARK   53  A    between atoms: _128  and  _129
REMARK   54  A    between atoms: _131  and  _133
REMARK   55  A    between atoms: _133  and  _134
REMARK   56  A    between atoms: _133  and  _136
REMARK   57  A    between atoms: _136  and  _137
REMARK   58  A    between atoms: _143  and  _145
REMARK   59  A    between atoms: _145  and  _146
REMARK   60  A    between atoms: _145  and  _148
REMARK   61  A    between atoms: _148  and  _149
REMARK   62  A    between atoms: _155  and  _157
REMARK   63  A    between atoms: _157  and  _158
REMARK   64  A    between atoms: _157  and  _160
REMARK   65  A    between atoms: _160  and  _161
REMARK   66  A    between atoms: _166  and  _167
REMARK   67  A    between atoms: _169  and  _171
REMARK   68  A    between atoms: _171  and  _172
REMARK   69  A    between atoms: _171  and  _174
REMARK   70  A    between atoms: _175  and  _176
REMARK   71  A    between atoms: _179  and  _181
REMARK   72  A    between atoms: _181  and  _182
REMARK   73  A    between atoms: _181  and  _184
REMARK   74  A    between atoms: _184  and  _185
REMARK   75  A    between atoms: _196  and  _197
REMARK   76  A    between atoms: _203  and  _204
REMARK   77  A    between atoms: _209  and  _211
REMARK   78  A    between atoms: _211  and  _212
REMARK   79  A    between atoms: _214  and  _216
REMARK   80  A    between atoms: _216  and  _217
REMARK   81  A    between atoms: _220  and  _222
REMARK   82  A    between atoms: _222  and  _223
REMARK   83  A    between atoms: _222  and  _225
REMARK   84  A    between atoms: _225  and  _226
REMARK   85  A    between atoms: _226  and  _227
REMARK   86  A    between atoms: _227  and  _228
REMARK   87  A    between atoms: _237  and  _239
REMARK   88  A    between atoms: _239  and  _240
REMARK   89  A    between atoms: _239  and  _242
REMARK   90  A    between atoms: _242  and  _243
REMARK   91  A    between atoms: _246  and  _248
REMARK   92  A    between atoms: _248  and  _249
REMARK   93  A    between atoms: _248  and  _251
REMARK   94  A    between atoms: _251  and  _252
REMARK   95  A    between atoms: _257  and  _259
REMARK   96  A    between atoms: _259  and  _260
REMARK   97  A    between atoms: _263  and  _265
REMARK   98  A    between atoms: _265  and  _266
REMARK   99  A    between atoms: _265  and  _268
REMARK  100  A    between atoms: _268  and  _269
REMARK  101  A    between atoms: _271  and  _273
REMARK  102  A    between atoms: _273  and  _274
REMARK  103  A    between atoms: _276  and  _278
REMARK  104  A    between atoms: _278  and  _279
REMARK  105  A    between atoms: _278  and  _281
REMARK  106  A    between atoms: _281  and  _282
REMARK  107  A    between atoms: _287  and  _289
REMARK  108  A    between atoms: _289  and  _290
REMARK  109  A    between atoms: _289  and  _292
REMARK  110  A    between atoms: _292  and  _293
REMARK  111  A    between atoms: _298  and  _300
REMARK  112  A    between atoms: _300  and  _301
REMARK  113  A    between atoms: _300  and  _303
REMARK  114  A    between atoms: _303  and  _304
REMARK  115  A    between atoms: _310  and  _312
REMARK  116  A    between atoms: _312  and  _313
REMARK  117  A    between atoms: _312  and  _315
REMARK                            x       y       z     vdW  Elec       q    Type
REMARK                         _______ _______ _______ _____ _____    ______ ____
ROOT
ATOM      1  O   HOH     1      20.794  30.909  19.165  0.00  0.00    +0.000 OA
ENDROOT
TORSDOF 0
REMARK  Name = ../refined-set-2016/1rnt/1rnt_pocket.pdb
REMARK  117 active torsions:
REMARK  status: ('A' for Active; 'I' for Inactive)
REMARK    1  A    between atoms: _1  and  _3
REMARK    2  A    between atoms: _3  and  _4
REMARK    3  A    between atoms: _3  and  _6
REMARK    4  A    between atoms: _6  and  _7
REMARK    5  A    between atoms: _9  and  _11
REMARK    6  A    between atoms: _11  and  _12
REMARK    7  A    between atoms: _11  and  _14
REMARK    8  A    between atoms: _14  and  _15
REMARK    9  A    between atoms: _20  and  _22
REMARK   10  A    between atoms: _22  and  _23
REMARK   11  A    between atoms: _22  and  _25
REMARK   12  A    between atoms: _25  and  _26
REMARK   13  A    between atoms: _28  and  _30
REMARK   14  A    between atoms: _30  and  _31
REMARK   15  A    between atoms: _30  and  _33
REMARK   16  A    between atoms: _33  and  _34
REMARK   17  A    between atoms: _39  and  _40
REMARK   18  A    between atoms: _42  and  _44
REMARK   19  A    between atoms: _44  and  _45
REMARK   20  A    between atoms: _44  and  _47
REMARK   21  A    between atoms: _47  and  _48
REMARK   22  A    between atoms: _53  and  _55
REMARK   23  A    between atoms: _55  and  _56
REMARK   24  A    between atoms: _55  and  _58
REMARK   25  A    between atoms: _58  and  _59
REMARK   26  A    between atoms: _59  and  _60
REMARK   27  A    between atoms: _60  and  _61
REMARK   28  A    between atoms: _61  and  _62
REMARK   29  A    between atoms: _66  and  _68
REMARK   30  A    between atoms: _68  and  _69
REMARK   31  A    between atoms: _68  and  _71
REMARK   32  A    between atoms: _71  and  _72
REMARK   33  A    between atoms: _77  and  _78
REMARK   34  A    between atoms: _80  and  _82
REMARK   35  A    between atoms: _82  and  _83
REMARK   36  A    between atoms: _82  and  _85
REMARK   37  A    between atoms: _85  and  _86
REMARK   38  A    between atoms: _91  and  _93
REMARK   39  A    between atoms: _93  and  _94
REMARK   40  A    between atoms: _93  and  _96
REMARK   41  A    between atoms: _96  and  _97
REMARK   42  A    between atoms: _102  and  _104
REMARK   43  A    between atoms: _104  and  _105
REMARK   44  A    between atoms: _104  and  _107
REMARK   45  A    between atoms: _107  and  _108
REMARK   46  A    between atoms: _113  and  _114
REMARK   47  A    between atoms: _116  and  _118
REMARK   48  A    between atoms: _118  and  _119
REMARK   49  A    between atoms: _118  and  _121
REMARK   50  A    between atoms: _121  and  _122
REMARK   51  A    between atoms: _122  and  _123
REMARK   52  A    between atoms: _126  and  _128
REMARK   53  A    between atoms: _128  and  _129
REMARK   54  A    between atoms: _131  and  _133
REMARK   55  A    between atoms: _133  and  _134
REMARK   56  A    between atoms: _133  and  _136
REMARK   57  A    between atoms: _136  and  _137
REMARK   58  A    between atoms: _143  and  _145
REMARK   59  A    between atoms: _145  and  _146
REMARK   60  A    between atoms: _145  and  _148
REMARK   61  A    between atoms: _148  and  _149
REMARK   62  A    between atoms: _155  and  _157
REMARK   63  A    between atoms: _157  and  _158
REMARK   64  A    between atoms: _157  and  _160
REMARK   65  A    between atoms: _160  and  _161
REMARK   66  A    between atoms: _166  and  _167
REMARK   67  A    between atoms: _169  and  _171
REMARK   68  A    between atoms: _171  and  _172
REMARK   69  A    between atoms: _171  and  _174
REMARK   70  A    between atoms: _175  and  _176
REMARK   71  A    between atoms: _179  and  _181
REMARK   72  A    between atoms: _181  and  _182
REMARK   73  A    between atoms: _181  and  _184
REMARK   74  A    between atoms: _184  and  _185
REMARK   75  A    between atoms: _196  and  _197
REMARK   76  A    between atoms: _203  and  _204
REMARK   77  A    between atoms: _209  and  _211
REMARK   78  A    between atoms: _211  and  _212
REMARK   79  A    between atoms: _214  and  _216
REMARK   80  A    between atoms: _216  and  _217
REMARK   81  A    between atoms: _220  and  _222
REMARK   82  A    between atoms: _222  and  _223
REMARK   83  A    between atoms: _222  and  _225
REMARK   84  A    between atoms: _225  and  _226
REMARK   85  A    between atoms: _226  and  _227
REMARK   86  A    between atoms: _227  and  _228
REMARK   87  A    between atoms: _237  and  _239
REMARK   88  A    between atoms: _239  and  _240
REMARK   89  A    between atoms: _239  and  _242
REMARK   90  A    between atoms: _242  and  _243
REMARK   91  A    between atoms: _246  and  _248
REMARK   92  A    between atoms: _248  and  _249
REMARK   93  A    between atoms: _248  and  _251
REMARK   94  A    between atoms: _251  and  _252
REMARK   95  A    between atoms: _257  and  _259
REMARK   96  A    between atoms: _259  and  _260
REMARK   97  A    between atoms: _263  and  _265
REMARK   98  A    between atoms: _265  and  _266
REMARK   99  A    between atoms: _265  and  _268
REMARK  100  A    between atoms: _268  and  _269
REMARK  101  A    between atoms: _271  and  _273
REMARK  102  A    between atoms: _273  and  _274
REMARK  103  A    between atoms: _276  and  _278
REMARK  104  A    between atoms: _278  and  _279
REMARK  105  A    between atoms: _278  and  _281
REMARK  106  A    between atoms: _281  and  _282
REMARK  107  A    between atoms: _287  and  _289
REMARK  108  A    between atoms: _289  and  _290
REMARK  109  A    between atoms: _289  and  _292
REMARK  110  A    between atoms: _292  and  _293
REMARK  111  A    between atoms: _298  and  _300
REMARK  112  A    between atoms: _300  and  _301
REMARK  113  A    between atoms: _300  and  _303
REMARK  114  A    between atoms: _303  and  _304
REMARK  115  A    between atoms: _310  and  _312
REMARK  116  A    between atoms: _312  and  _313
REMARK  117  A    between atoms: _312  and  _315
REMARK                            x       y       z     vdW  Elec       q    Type
REMARK                         _______ _______ _______ _____ _____    ______ ____
ROOT
ATOM      1  O   HOH     1       8.896  26.592  17.501  0.00  0.00    +0.000 OA
ENDROOT
TORSDOF 0
REMARK  Name = ../refined-set-2016/1rnt/1rnt_pocket.pdb
REMARK  117 active torsions:
REMARK  status: ('A' for Active; 'I' for Inactive)
REMARK    1  A    between atoms: _1  and  _3
REMARK    2  A    between atoms: _3  and  _4
REMARK    3  A    between atoms: _3  and  _6
REMARK    4  A    between atoms: _6  and  _7
REMARK    5  A    between atoms: _9  and  _11
REMARK    6  A    between atoms: _11  and  _12
REMARK    7  A    between atoms: _11  and  _14
REMARK    8  A    between atoms: _14  and  _15
REMARK    9  A    between atoms: _20  and  _22
REMARK   10  A    between atoms: _22  and  _23
REMARK   11  A    between atoms: _22  and  _25
REMARK   12  A    between atoms: _25  and  _26
REMARK   13  A    between atoms: _28  and  _30
REMARK   14  A    between atoms: _30  and  _31
REMARK   15  A    between atoms: _30  and  _33
REMARK   16  A    between atoms: _33  and  _34
REMARK   17  A    between atoms: _39  and  _40
REMARK   18  A    between atoms: _42  and  _44
REMARK   19  A    between atoms: _44  and  _45
REMARK   20  A    between atoms: _44  and  _47
REMARK   21  A    between atoms: _47  and  _48
REMARK   22  A    between atoms: _53  and  _55
REMARK   23  A    between atoms: _55  and  _56
REMARK   24  A    between atoms: _55  and  _58
REMARK   25  A    between atoms: _58  and  _59
REMARK   26  A    between atoms: _59  and  _60
REMARK   27  A    between atoms: _60  and  _61
REMARK   28  A    between atoms: _61  and  _62
REMARK   29  A    between atoms: _66  and  _68
REMARK   30  A    between atoms: _68  and  _69
REMARK   31  A    between atoms: _68  and  _71
REMARK   32  A    between atoms: _71  and  _72
REMARK   33  A    between atoms: _77  and  _78
REMARK   34  A    between atoms: _80  and  _82
REMARK   35  A    between atoms: _82  and  _83
REMARK   36  A    between atoms: _82  and  _85
REMARK   37  A    between atoms: _85  and  _86
REMARK   38  A    between atoms: _91  and  _93
REMARK   39  A    between atoms: _93  and  _94
REMARK   40  A    between atoms: _93  and  _96
REMARK   41  A    between atoms: _96  and  _97
REMARK   42  A    between atoms: _102  and  _104
REMARK   43  A    between atoms: _104  and  _105
REMARK   44  A    between atoms: _104  and  _107
REMARK   45  A    between atoms: _107  and  _108
REMARK   46  A    between atoms: _113  and  _114
REMARK   47  A    between atoms: _116  and  _118
REMARK   48  A    between atoms: _118  and  _119
REMARK   49  A    between atoms: _118  and  _121
REMARK   50  A    between atoms: _121  and  _122
REMARK   51  A    between atoms: _122  and  _123
REMARK   52  A    between atoms: _126  and  _128
REMARK   53  A    between atoms: _128  and  _129
REMARK   54  A    between atoms: _131  and  _133
REMARK   55  A    between atoms: _133  and  _134
REMARK   56  A    between atoms: _133  and  _136
REMARK   57  A    between atoms: _136  and  _137
REMARK   58  A    between atoms: _143  and  _145
REMARK   59  A    between atoms: _145  and  _146
REMARK   60  A    between atoms: _145  and  _148
REMARK   61  A    between atoms: _148  and  _149
REMARK   62  A    between atoms: _155  and  _157
REMARK   63  A    between atoms: _157  and  _158
REMARK   64  A    between atoms: _157  and  _160
REMARK   65  A    between atoms: _160  and  _161
REMARK   66  A    between atoms: _166  and  _167
REMARK   67  A    between atoms: _169  and  _171
REMARK   68  A    between atoms: _171  and  _172
REMARK   69  A    between atoms: _171  and  _174
REMARK   70  A    between atoms: _175  and  _176
REMARK   71  A    between atoms: _179  and  _181
REMARK   72  A    between atoms: _181  and  _182
REMARK   73  A    between atoms: _181  and  _184
REMARK   74  A    between atoms: _184  and  _185
REMARK   75  A    between atoms: _196  and  _197
REMARK   76  A    between atoms: _203  and  _204
REMARK   77  A    between atoms: _209  and  _211
REMARK   78  A    between atoms: _211  and  _212
REMARK   79  A    between atoms: _214  and  _216
REMARK   80  A    between atoms: _216  and  _217
REMARK   81  A    between atoms: _220  and  _222
REMARK   82  A    between atoms: _222  and  _223
REMARK   83  A    between atoms: _222  and  _225
REMARK   84  A    between atoms: _225  and  _226
REMARK   85  A    between atoms: _226  and  _227
REMARK   86  A    between atoms: _227  and  _228
REMARK   87  A    between atoms: _237  and  _239
REMARK   88  A    between atoms: _239  and  _240
REMARK   89  A    between atoms: _239  and  _242
REMARK   90  A    between atoms: _242  and  _243
REMARK   91  A    between atoms: _246  and  _248
REMARK   92  A    between atoms: _248  and  _249
REMARK   93  A    between atoms: _248  and  _251
REMARK   94  A    between atoms: _251  and  _252
REMARK   95  A    between atoms: _257  and  _259
REMARK   96  A    between atoms: _259  and  _260
REMARK   97  A    between atoms: _263  and  _265
REMARK   98  A    between atoms: _265  and  _266
REMARK   99  A    between atoms: _265  and  _268
REMARK  100  A    between atoms: _268  and  _269
REMARK  101  A    between atoms: _271  and  _273
REMARK  102  A    between atoms: _273  and  _274
REMARK  103  A    between atoms: _276  and  _278
REMARK  104  A    between atoms: _278  and  _279
REMARK  105  A    between atoms: _278  and  _281
REMARK  106  A    between atoms: _281  and  _282
REMARK  107  A    between atoms: _287  and  _289
REMARK  108  A    between atoms: _289  and  _290
REMARK  109  A    between atoms: _289  and  _292
REMARK  110  A    between atoms: _292  and  _293
REMARK  111  A    between atoms: _298  and  _300
REMARK  112  A    between atoms: _300  and  _301
REMARK  113  A    between atoms: _300  and  _303
REMARK  114  A    between atoms: _303  and  _304
REMARK  115  A    between atoms: _310  and  _312
REMARK  116  A    between atoms: _312  and  _313
REMARK  117  A    between atoms: _312  and  _315
REMARK                            x       y       z     vdW  Elec       q    Type
REMARK                         _______ _______ _______ _____ _____    ______ ____
ROOT
ATOM      1  O   HOH     1      18.963  36.761  22.360  0.00  0.00    +0.000 OA
ENDROOT
TORSDOF 0
REMARK  Name = ../refined-set-2016/1rnt/1rnt_pocket.pdb
REMARK  117 active torsions:
REMARK  status: ('A' for Active; 'I' for Inactive)
REMARK    1  A    between atoms: _1  and  _3
REMARK    2  A    between atoms: _3  and  _4
REMARK    3  A    between atoms: _3  and  _6
REMARK    4  A    between atoms: _6  and  _7
REMARK    5  A    between atoms: _9  and  _11
REMARK    6  A    between atoms: _11  and  _12
REMARK    7  A    between atoms: _11  and  _14
REMARK    8  A    between atoms: _14  and  _15
REMARK    9  A    between atoms: _20  and  _22
REMARK   10  A    between atoms: _22  and  _23
REMARK   11  A    between atoms: _22  and  _25
REMARK   12  A    between atoms: _25  and  _26
REMARK   13  A    between atoms: _28  and  _30
REMARK   14  A    between atoms: _30  and  _31
REMARK   15  A    between atoms: _30  and  _33
REMARK   16  A    between atoms: _33  and  _34
REMARK   17  A    between atoms: _39  and  _40
REMARK   18  A    between atoms: _42  and  _44
REMARK   19  A    between atoms: _44  and  _45
REMARK   20  A    between atoms: _44  and  _47
REMARK   21  A    between atoms: _47  and  _48
REMARK   22  A    between atoms: _53  and  _55
REMARK   23  A    between atoms: _55  and  _56
REMARK   24  A    between atoms: _55  and  _58
REMARK   25  A    between atoms: _58  and  _59
REMARK   26  A    between atoms: _59  and  _60
REMARK   27  A    between atoms: _60  and  _61
REMARK   28  A    between atoms: _61  and  _62
REMARK   29  A    between atoms: _66  and  _68
REMARK   30  A    between atoms: _68  and  _69
REMARK   31  A    between atoms: _68  and  _71
REMARK   32  A    between atoms: _71  and  _72
REMARK   33  A    between atoms: _77  and  _78
REMARK   34  A    between atoms: _80  and  _82
REMARK   35  A    between atoms: _82  and  _83
REMARK   36  A    between atoms: _82  and  _85
REMARK   37  A    between atoms: _85  and  _86
REMARK   38  A    between atoms: _91  and  _93
REMARK   39  A    between atoms: _93  and  _94
REMARK   40  A    between atoms: _93  and  _96
REMARK   41  A    between atoms: _96  and  _97
REMARK   42  A    between atoms: _102  and  _104
REMARK   43  A    between atoms: _104  and  _105
REMARK   44  A    between atoms: _104  and  _107
REMARK   45  A    between atoms: _107  and  _108
REMARK   46  A    between atoms: _113  and  _114
REMARK   47  A    between atoms: _116  and  _118
REMARK   48  A    between atoms: _118  and  _119
REMARK   49  A    between atoms: _118  and  _121
REMARK   50  A    between atoms: _121  and  _122
REMARK   51  A    between atoms: _122  and  _123
REMARK   52  A    between atoms: _126  and  _128
REMARK   53  A    between atoms: _128  and  _129
REMARK   54  A    between atoms: _131  and  _133
REMARK   55  A    between atoms: _133  and  _134
REMARK   56  A    between atoms: _133  and  _136
REMARK   57  A    between atoms: _136  and  _137
REMARK   58  A    between atoms: _143  and  _145
REMARK   59  A    between atoms: _145  and  _146
REMARK   60  A    between atoms: _145  and  _148
REMARK   61  A    between atoms: _148  and  _149
REMARK   62  A    between atoms: _155  and  _157
REMARK   63  A    between atoms: _157  and  _158
REMARK   64  A    between atoms: _157  and  _160
REMARK   65  A    between atoms: _160  and  _161
REMARK   66  A    between atoms: _166  and  _167
REMARK   67  A    between atoms: _169  and  _171
REMARK   68  A    between atoms: _171  and  _172
REMARK   69  A    between atoms: _171  and  _174
REMARK   70  A    between atoms: _175  and  _176
REMARK   71  A    between atoms: _179  and  _181
REMARK   72  A    between atoms: _181  and  _182
REMARK   73  A    between atoms: _181  and  _184
REMARK   74  A    between atoms: _184  and  _185
REMARK   75  A    between atoms: _196  and  _197
REMARK   76  A    between atoms: _203  and  _204
REMARK   77  A    between atoms: _209  and  _211
REMARK   78  A    between atoms: _211  and  _212
REMARK   79  A    between atoms: _214  and  _216
REMARK   80  A    between atoms: _216  and  _217
REMARK   81  A    between atoms: _220  and  _222
REMARK   82  A    between atoms: _222  and  _223
REMARK   83  A    between atoms: _222  and  _225
REMARK   84  A    between atoms: _225  and  _226
REMARK   85  A    between atoms: _226  and  _227
REMARK   86  A    between atoms: _227  and  _228
REMARK   87  A    between atoms: _237  and  _239
REMARK   88  A    between atoms: _239  and  _240
REMARK   89  A    between atoms: _239  and  _242
REMARK   90  A    between atoms: _242  and  _243
REMARK   91  A    between atoms: _246  and  _248
REMARK   92  A    between atoms: _248  and  _249
REMARK   93  A    between atoms: _248  and  _251
REMARK   94  A    between atoms: _251  and  _252
REMARK   95  A    between atoms: _257  and  _259
REMARK   96  A    between atoms: _259  and  _260
REMARK   97  A    between atoms: _263  and  _265
REMARK   98  A    between atoms: _265  and  _266
REMARK   99  A    between atoms: _265  and  _268
REMARK  100  A    between atoms: _268  and  _269
REMARK  101  A    between atoms: _271  and  _273
REMARK  102  A    between atoms: _273  and  _274
REMARK  103  A    between atoms: _276  and  _278
REMARK  104  A    between atoms: _278  and  _279
REMARK  105  A    between atoms: _278  and  _281
REMARK  106  A    between atoms: _281  and  _282
REMARK  107  A    between atoms: _287  and  _289
REMARK  108  A    between atoms: _289  and  _290
REMARK  109  A    between atoms: _289  and  _292
REMARK  110  A    between atoms: _292  and  _293
REMARK  111  A    between atoms: _298  and  _300
REMARK  112  A    between atoms: _300  and  _301
REMARK  113  A    between atoms: _300  and  _303
REMARK  114  A    between atoms: _303  and  _304
REMARK  115  A    between atoms: _310  and  _312
REMARK  116  A    between atoms: _312  and  _313
REMARK  117  A    between atoms: _312  and  _315
REMARK                            x       y       z     vdW  Elec       q    Type
REMARK                         _______ _______ _______ _____ _____    ______ ____
ROOT
ATOM      1  O   HOH     1      14.448  34.539  26.592  0.00  0.00    +0.000 OA
ENDROOT
TORSDOF 0
REMARK  Name = ../refined-set-2016/1rnt/1rnt_pocket.pdb
REMARK  117 active torsions:
REMARK  status: ('A' for Active; 'I' for Inactive)
REMARK    1  A    between atoms: _1  and  _3
REMARK    2  A    between atoms: _3  and  _4
REMARK    3  A    between atoms: _3  and  _6
REMARK    4  A    between atoms: _6  and  _7
REMARK    5  A    between atoms: _9  and  _11
REMARK    6  A    between atoms: _11  and  _12
REMARK    7  A    between atoms: _11  and  _14
REMARK    8  A    between atoms: _14  and  _15
REMARK    9  A    between atoms: _20  and  _22
REMARK   10  A    between atoms: _22  and  _23
REMARK   11  A    between atoms: _22  and  _25
REMARK   12  A    between atoms: _25  and  _26
REMARK   13  A    between atoms: _28  and  _30
REMARK   14  A    between atoms: _30  and  _31
REMARK   15  A    between atoms: _30  and  _33
REMARK   16  A    between atoms: _33  and  _34
REMARK   17  A    between atoms: _39  and  _40
REMARK   18  A    between atoms: _42  and  _44
REMARK   19  A    between atoms: _44  and  _45
REMARK   20  A    between atoms: _44  and  _47
REMARK   21  A    between atoms: _47  and  _48
REMARK   22  A    between atoms: _53  and  _55
REMARK   23  A    between atoms: _55  and  _56
REMARK   24  A    between atoms: _55  and  _58
REMARK   25  A    between atoms: _58  and  _59
REMARK   26  A    between atoms: _59  and  _60
REMARK   27  A    between atoms: _60  and  _61
REMARK   28  A    between atoms: _61  and  _62
REMARK   29  A    between atoms: _66  and  _68
REMARK   30  A    between atoms: _68  and  _69
REMARK   31  A    between atoms: _68  and  _71
REMARK   32  A    between atoms: _71  and  _72
REMARK   33  A    between atoms: _77  and  _78
REMARK   34  A    between atoms: _80  and  _82
REMARK   35  A    between atoms: _82  and  _83
REMARK   36  A    between atoms: _82  and  _85
REMARK   37  A    between atoms: _85  and  _86
REMARK   38  A    between atoms: _91  and  _93
REMARK   39  A    between atoms: _93  and  _94
REMARK   40  A    between atoms: _93  and  _96
REMARK   41  A    between atoms: _96  and  _97
REMARK   42  A    between atoms: _102  and  _104
REMARK   43  A    between atoms: _104  and  _105
REMARK   44  A    between atoms: _104  and  _107
REMARK   45  A    between atoms: _107  and  _108
REMARK   46  A    between atoms: _113  and  _114
REMARK   47  A    between atoms: _116  and  _118
REMARK   48  A    between atoms: _118  and  _119
REMARK   49  A    between atoms: _118  and  _121
REMARK   50  A    between atoms: _121  and  _122
REMARK   51  A    between atoms: _122  and  _123
REMARK   52  A    between atoms: _126  and  _128
REMARK   53  A    between atoms: _128  and  _129
REMARK   54  A    between atoms: _131  and  _133
REMARK   55  A    between atoms: _133  and  _134
REMARK   56  A    between atoms: _133  and  _136
REMARK   57  A    between atoms: _136  and  _137
REMARK   58  A    between atoms: _143  and  _145
REMARK   59  A    between atoms: _145  and  _146
REMARK   60  A    between atoms: _145  and  _148
REMARK   61  A    between atoms: _148  and  _149
REMARK   62  A    between atoms: _155  and  _157
REMARK   63  A    between atoms: _157  and  _158
REMARK   64  A    between atoms: _157  and  _160
REMARK   65  A    between atoms: _160  and  _161
REMARK   66  A    between atoms: _166  and  _167
REMARK   67  A    between atoms: _169  and  _171
REMARK   68  A    between atoms: _171  and  _172
REMARK   69  A    between atoms: _171  and  _174
REMARK   70  A    between atoms: _175  and  _176
REMARK   71  A    between atoms: _179  and  _181
REMARK   72  A    between atoms: _181  and  _182
REMARK   73  A    between atoms: _181  and  _184
REMARK   74  A    between atoms: _184  and  _185
REMARK   75  A    between atoms: _196  and  _197
REMARK   76  A    between atoms: _203  and  _204
REMARK   77  A    between atoms: _209  and  _211
REMARK   78  A    between atoms: _211  and  _212
REMARK   79  A    between atoms: _214  and  _216
REMARK   80  A    between atoms: _216  and  _217
REMARK   81  A    between atoms: _220  and  _222
REMARK   82  A    between atoms: _222  and  _223
REMARK   83  A    between atoms: _222  and  _225
REMARK   84  A    between atoms: _225  and  _226
REMARK   85  A    between atoms: _226  and  _227
REMARK   86  A    between atoms: _227  and  _228
REMARK   87  A    between atoms: _237  and  _239
REMARK   88  A    between atoms: _239  and  _240
REMARK   89  A    between atoms: _239  and  _242
REMARK   90  A    between atoms: _242  and  _243
REMARK   91  A    between atoms: _246  and  _248
REMARK   92  A    between atoms: _248  and  _249
REMARK   93  A    between atoms: _248  and  _251
REMARK   94  A    between atoms: _251  and  _252
REMARK   95  A    between atoms: _257  and  _259
REMARK   96  A    between atoms: _259  and  _260
REMARK   97  A    between atoms: _263  and  _265
REMARK   98  A    between atoms: _265  and  _266
REMARK   99  A    between atoms: _265  and  _268
REMARK  100  A    between atoms: _268  and  _269
REMARK  101  A    between atoms: _271  and  _273
REMARK  102  A    between atoms: _273  and  _274
REMARK  103  A    between atoms: _276  and  _278
REMARK  104  A    between atoms: _278  and  _279
REMARK  105  A    between atoms: _278  and  _281
REMARK  106  A    between atoms: _281  and  _282
REMARK  107  A    between atoms: _287  and  _289
REMARK  108  A    between atoms: _289  and  _290
REMARK  109  A    between atoms: _289  and  _292
REMARK  110  A    between atoms: _292  and  _293
REMARK  111  A    between atoms: _298  and  _300
REMARK  112  A    between atoms: _300  and  _301
REMARK  113  A    between atoms: _300  and  _303
REMARK  114  A    between atoms: _303  and  _304
REMARK  115  A    between atoms: _310  and  _312
REMARK  116  A    between atoms: _312  and  _313
REMARK  117  A    between atoms: _312  and  _315
REMARK                            x       y       z     vdW  Elec       q    Type
REMARK                         _______ _______ _______ _____ _____    ______ ____
ROOT
ATOM      1  O   HOH     1      22.732  36.334  21.589  0.00  0.00    +0.000 OA
ENDROOT
TORSDOF 0
REMARK  Name = ../refined-set-2016/1rnt/1rnt_pocket.pdb
REMARK  117 active torsions:
REMARK  status: ('A' for Active; 'I' for Inactive)
REMARK    1  A    between atoms: _1  and  _3
REMARK    2  A    between atoms: _3  and  _4
REMARK    3  A    between atoms: _3  and  _6
REMARK    4  A    between atoms: _6  and  _7
REMARK    5  A    between atoms: _9  and  _11
REMARK    6  A    between atoms: _11  and  _12
REMARK    7  A    between atoms: _11  and  _14
REMARK    8  A    between atoms: _14  and  _15
REMARK    9  A    between atoms: _20  and  _22
REMARK   10  A    between atoms: _22  and  _23
REMARK   11  A    between atoms: _22  and  _25
REMARK   12  A    between atoms: _25  and  _26
REMARK   13  A    between atoms: _28  and  _30
REMARK   14  A    between atoms: _30  and  _31
REMARK   15  A    between atoms: _30  and  _33
REMARK   16  A    between atoms: _33  and  _34
REMARK   17  A    between atoms: _39  and  _40
REMARK   18  A    between atoms: _42  and  _44
REMARK   19  A    between atoms: _44  and  _45
REMARK   20  A    between atoms: _44  and  _47
REMARK   21  A    between atoms: _47  and  _48
REMARK   22  A    between atoms: _53  and  _55
REMARK   23  A    between atoms: _55  and  _56
REMARK   24  A    between atoms: _55  and  _58
REMARK   25  A    between atoms: _58  and  _59
REMARK   26  A    between atoms: _59  and  _60
REMARK   27  A    between atoms: _60  and  _61
REMARK   28  A    between atoms: _61  and  _62
REMARK   29  A    between atoms: _66  and  _68
REMARK   30  A    between atoms: _68  and  _69
REMARK   31  A    between atoms: _68  and  _71
REMARK   32  A    between atoms: _71  and  _72
REMARK   33  A    between atoms: _77  and  _78
REMARK   34  A    between atoms: _80  and  _82
REMARK   35  A    between atoms: _82  and  _83
REMARK   36  A    between atoms: _82  and  _85
REMARK   37  A    between atoms: _85  and  _86
REMARK   38  A    between atoms: _91  and  _93
REMARK   39  A    between atoms: _93  and  _94
REMARK   40  A    between atoms: _93  and  _96
REMARK   41  A    between atoms: _96  and  _97
REMARK   42  A    between atoms: _102  and  _104
REMARK   43  A    between atoms: _104  and  _105
REMARK   44  A    between atoms: _104  and  _107
REMARK   45  A    between atoms: _107  and  _108
REMARK   46  A    between atoms: _113  and  _114
REMARK   47  A    between atoms: _116  and  _118
REMARK   48  A    between atoms: _118  and  _119
REMARK   49  A    between atoms: _118  and  _121
REMARK   50  A    between atoms: _121  and  _122
REMARK   51  A    between atoms: _122  and  _123
REMARK   52  A    between atoms: _126  and  _128
REMARK   53  A    between atoms: _128  and  _129
REMARK   54  A    between atoms: _131  and  _133
REMARK   55  A    between atoms: _133  and  _134
REMARK   56  A    between atoms: _133  and  _136
REMARK   57  A    between atoms: _136  and  _137
REMARK   58  A    between atoms: _143  and  _145
REMARK   59  A    between atoms: _145  and  _146
REMARK   60  A    between atoms: _145  and  _148
REMARK   61  A    between atoms: _148  and  _149
REMARK   62  A    between atoms: _155  and  _157
REMARK   63  A    between atoms: _157  and  _158
REMARK   64  A    between atoms: _157  and  _160
REMARK   65  A    between atoms: _160  and  _161
REMARK   66  A    between atoms: _166  and  _167
REMARK   67  A    between atoms: _169  and  _171
REMARK   68  A    between atoms: _171  and  _172
REMARK   69  A    between atoms: _171  and  _174
REMARK   70  A    between atoms: _175  and  _176
REMARK   71  A    between atoms: _179  and  _181
REMARK   72  A    between atoms: _181  and  _182
REMARK   73  A    between atoms: _181  and  _184
REMARK   74  A    between atoms: _184  and  _185
REMARK   75  A    between atoms: _196  and  _197
REMARK   76  A    between atoms: _203  and  _204
REMARK   77  A    between atoms: _209  and  _211
REMARK   78  A    between atoms: _211  and  _212
REMARK   79  A    between atoms: _214  and  _216
REMARK   80  A    between atoms: _216  and  _217
REMARK   81  A    between atoms: _220  and  _222
REMARK   82  A    between atoms: _222  and  _223
REMARK   83  A    between atoms: _222  and  _225
REMARK   84  A    between atoms: _225  and  _226
REMARK   85  A    between atoms: _226  and  _227
REMARK   86  A    between atoms: _227  and  _228
REMARK   87  A    between atoms: _237  and  _239
REMARK   88  A    between atoms: _239  and  _240
REMARK   89  A    between atoms: _239  and  _242
REMARK   90  A    between atoms: _242  and  _243
REMARK   91  A    between atoms: _246  and  _248
REMARK   92  A    between atoms: _248  and  _249
REMARK   93  A    between atoms: _248  and  _251
REMARK   94  A    between atoms: _251  and  _252
REMARK   95  A    between atoms: _257  and  _259
REMARK   96  A    between atoms: _259  and  _260
REMARK   97  A    between atoms: _263  and  _265
REMARK   98  A    between atoms: _265  and  _266
REMARK   99  A    between atoms: _265  and  _268
REMARK  100  A    between atoms: _268  and  _269
REMARK  101  A    between atoms: _271  and  _273
REMARK  102  A    between atoms: _273  and  _274
REMARK  103  A    between atoms: _276  and  _278
REMARK  104  A    between atoms: _278  and  _279
REMARK  105  A    between atoms: _278  and  _281
REMARK  106  A    between atoms: _281  and  _282
REMARK  107  A    between atoms: _287  and  _289
REMARK  108  A    between atoms: _289  and  _290
REMARK  109  A    between atoms: _289  and  _292
REMARK  110  A    between atoms: _292  and  _293
REMARK  111  A    between atoms: _298  and  _300
REMARK  112  A    between atoms: _300  and  _301
REMARK  113  A    between atoms: _300  and  _303
REMARK  114  A    between atoms: _303  and  _304
REMARK  115  A    between atoms: _310  and  _312
REMARK  116  A    between atoms: _312  and  _313
REMARK  117  A    between atoms: _312  and  _315
REMARK                            x       y       z     vdW  Elec       q    Type
REMARK                         _______ _______ _______ _____ _____    ______ ____
ROOT
ATOM      1  O   HOH     1      21.796  38.674  20.722  0.00  0.00    +0.000 OA
ENDROOT
TORSDOF 0
REMARK  Name = ../refined-set-2016/1rnt/1rnt_pocket.pdb
REMARK  117 active torsions:
REMARK  status: ('A' for Active; 'I' for Inactive)
REMARK    1  A    between atoms: _1  and  _3
REMARK    2  A    between atoms: _3  and  _4
REMARK    3  A    between atoms: _3  and  _6
REMARK    4  A    between atoms: _6  and  _7
REMARK    5  A    between atoms: _9  and  _11
REMARK    6  A    between atoms: _11  and  _12
REMARK    7  A    between atoms: _11  and  _14
REMARK    8  A    between atoms: _14  and  _15
REMARK    9  A    between atoms: _20  and  _22
REMARK   10  A    between atoms: _22  and  _23
REMARK   11  A    between atoms: _22  and  _25
REMARK   12  A    between atoms: _25  and  _26
REMARK   13  A    between atoms: _28  and  _30
REMARK   14  A    between atoms: _30  and  _31
REMARK   15  A    between atoms: _30  and  _33
REMARK   16  A    between atoms: _33  and  _34
REMARK   17  A    between atoms: _39  and  _40
REMARK   18  A    between atoms: _42  and  _44
REMARK   19  A    between atoms: _44  and  _45
REMARK   20  A    between atoms: _44  and  _47
REMARK   21  A    between atoms: _47  and  _48
REMARK   22  A    between atoms: _53  and  _55
REMARK   23  A    between atoms: _55  and  _56
REMARK   24  A    between atoms: _55  and  _58
REMARK   25  A    between atoms: _58  and  _59
REMARK   26  A    between atoms: _59  and  _60
REMARK   27  A    between atoms: _60  and  _61
REMARK   28  A    between atoms: _61  and  _62
REMARK   29  A    between atoms: _66  and  _68
REMARK   30  A    between atoms: _68  and  _69
REMARK   31  A    between atoms: _68  and  _71
REMARK   32  A    between atoms: _71  and  _72
REMARK   33  A    between atoms: _77  and  _78
REMARK   34  A    between atoms: _80  and  _82
REMARK   35  A    between atoms: _82  and  _83
REMARK   36  A    between atoms: _82  and  _85
REMARK   37  A    between atoms: _85  and  _86
REMARK   38  A    between atoms: _91  and  _93
REMARK   39  A    between atoms: _93  and  _94
REMARK   40  A    between atoms: _93  and  _96
REMARK   41  A    between atoms: _96  and  _97
REMARK   42  A    between atoms: _102  and  _104
REMARK   43  A    between atoms: _104  and  _105
REMARK   44  A    between atoms: _104  and  _107
REMARK   45  A    between atoms: _107  and  _108
REMARK   46  A    between atoms: _113  and  _114
REMARK   47  A    between atoms: _116  and  _118
REMARK   48  A    between atoms: _118  and  _119
REMARK   49  A    between atoms: _118  and  _121
REMARK   50  A    between atoms: _121  and  _122
REMARK   51  A    between atoms: _122  and  _123
REMARK   52  A    between atoms: _126  and  _128
REMARK   53  A    between atoms: _128  and  _129
REMARK   54  A    between atoms: _131  and  _133
REMARK   55  A    between atoms: _133  and  _134
REMARK   56  A    between atoms: _133  and  _136
REMARK   57  A    between atoms: _136  and  _137
REMARK   58  A    between atoms: _143  and  _145
REMARK   59  A    between atoms: _145  and  _146
REMARK   60  A    between atoms: _145  and  _148
REMARK   61  A    between atoms: _148  and  _149
REMARK   62  A    between atoms: _155  and  _157
REMARK   63  A    between atoms: _157  and  _158
REMARK   64  A    between atoms: _157  and  _160
REMARK   65  A    between atoms: _160  and  _161
REMARK   66  A    between atoms: _166  and  _167
REMARK   67  A    between atoms: _169  and  _171
REMARK   68  A    between atoms: _171  and  _172
REMARK   69  A    between atoms: _171  and  _174
REMARK   70  A    between atoms: _175  and  _176
REMARK   71  A    between atoms: _179  and  _181
REMARK   72  A    between atoms: _181  and  _182
REMARK   73  A    between atoms: _181  and  _184
REMARK   74  A    between atoms: _184  and  _185
REMARK   75  A    between atoms: _196  and  _197
REMARK   76  A    between atoms: _203  and  _204
REMARK   77  A    between atoms: _209  and  _211
REMARK   78  A    between atoms: _211  and  _212
REMARK   79  A    between atoms: _214  and  _216
REMARK   80  A    between atoms: _216  and  _217
REMARK   81  A    between atoms: _220  and  _222
REMARK   82  A    between atoms: _222  and  _223
REMARK   83  A    between atoms: _222  and  _225
REMARK   84  A    between atoms: _225  and  _226
REMARK   85  A    between atoms: _226  and  _227
REMARK   86  A    between atoms: _227  and  _228
REMARK   87  A    between atoms: _237  and  _239
REMARK   88  A    between atoms: _239  and  _240
REMARK   89  A    between atoms: _239  and  _242
REMARK   90  A    between atoms: _242  and  _243
REMARK   91  A    between atoms: _246  and  _248
REMARK   92  A    between atoms: _248  and  _249
REMARK   93  A    between atoms: _248  and  _251
REMARK   94  A    between atoms: _251  and  _252
REMARK   95  A    between atoms: _257  and  _259
REMARK   96  A    between atoms: _259  and  _260
REMARK   97  A    between atoms: _263  and  _265
REMARK   98  A    between atoms: _265  and  _266
REMARK   99  A    between atoms: _265  and  _268
REMARK  100  A    between atoms: _268  and  _269
REMARK  101  A    between atoms: _271  and  _273
REMARK  102  A    between atoms: _273  and  _274
REMARK  103  A    between atoms: _276  and  _278
REMARK  104  A    between atoms: _278  and  _279
REMARK  105  A    between atoms: _278  and  _281
REMARK  106  A    between atoms: _281  and  _282
REMARK  107  A    between atoms: _287  and  _289
REMARK  108  A    between atoms: _289  and  _290
REMARK  109  A    between atoms: _289  and  _292
REMARK  110  A    between atoms: _292  and  _293
REMARK  111  A    between atoms: _298  and  _300
REMARK  112  A    between atoms: _300  and  _301
REMARK  113  A    between atoms: _300  and  _303
REMARK  114  A    between atoms: _303  and  _304
REMARK  115  A    between atoms: _310  and  _312
REMARK  116  A    between atoms: _312  and  _313
REMARK  117  A    between atoms: _312  and  _315
REMARK                            x       y       z     vdW  Elec       q    Type
REMARK                         _______ _______ _______ _____ _____    ______ ____
ROOT
ATOM      1  O   HOH     1      16.935  25.213  19.445  0.00  0.00    +0.000 OA
ENDROOT
TORSDOF 0
